/*---------------------------------------------------------------------------*\
| =========                 |                                                 |
| \\      /  F ield         | OpenFOAM: The Open Source CFD Toolbox           |
|  \\    /   O peration     | Version:  v1706                                 |
|   \\  /    A nd           | Web:      www.OpenFOAM.com                      |
|    \\/     M anipulation  |                                                 |
\*---------------------------------------------------------------------------*/
Build  : v1706
Arch   : "LSB;label=32;scalar=64"
Exec   : splitMeshRegions -cellZones -overwrite
Date   : Feb 22 2018
Time   : 15:28:50
Host   : "r1i3n33"
PID    : 44134
Case   : /lustre/home/dc010/miriam/02hptMultiRegions/case
nProcs : 1
sigFpe : Enabling floating point exception trapping (FOAM_SIGFPE).
fileModificationChecking : Monitoring run-time modified files using timeStampMaster (fileModificationSkew 10)
allowSystemOperations : Allowing user-supplied system call operations

// * * * * * * * * * * * * * * * * * * * * * * * * * * * * * * * * * * * * * //
Create time

Create mesh for time = 0

Creating single patch per inter-region interface.

Trying to match regions to existing cell zones.


Number of regions:4

Writing region per cell file (for manual decomposition) to "/lustre/home/dc010/miriam/02hptMultiRegions/case/constant/cellToRegion"

Writing region per cell as volScalarField to "/lustre/home/dc010/miriam/02hptMultiRegions/case/0/cellToRegion"

Region	Cells
------	-----
0	1723
1	1352
2	5388
3	1232

Region	Zone	Name
------	----	----
0	0	steel
1	1	fluid
2	2	food
3	3	cap

Sizes of interfaces between regions:

Interface	Region	Region	Faces
---------	------	------	-----
0		0	1	123
1		2	3	23
2		1	2	90
3		0	2	23
4		1	3	43

Reading volScalarField T
Reading volScalarField cellToRegion
Reading volScalarField p


Adding patches


Adding patches

For interface between region steel and fluid added patches
    5	steel_to_fluid
    6	fluid_to_steel
For interface between region food and cap added patches
    7	food_to_cap
    8	cap_to_food
For interface between region fluid and food added patches
    9	fluid_to_food
    10	food_to_fluid
For interface between region steel and food added patches
    11	steel_to_food
    12	food_to_steel
For interface between region fluid and cap added patches
    13	fluid_to_cap
    14	cap_to_fluid

Region 0
-------- 
Creating mesh for region 0 steel
Testing:"/lustre/home/dc010/miriam/02hptMultiRegions/case/system/steel/fvSchemes"
Mapping fields
Mapping field cellToRegion
Mapping field p
Mapping field T
Deleting empty patches
Writing new mesh
Writing addressing to base mesh
Writing map pointRegionAddressing from region0 points back to base mesh.
Writing map faceRegionAddressing from region0 faces back to base mesh.
Writing map cellRegionAddressing from region0 cells back to base mesh.
Writing map boundaryRegionAddressing from region0 boundary back to base mesh.

Region 1
-------- 
Creating mesh for region 1 fluid
Testing:"/lustre/home/dc010/miriam/02hptMultiRegions/case/system/fluid/fvSchemes"
Mapping fields
Mapping field cellToRegion
Mapping field p
Mapping field T
Deleting empty patches
Writing new mesh
Writing addressing to base mesh
Writing map pointRegionAddressing from region1 points back to base mesh.
Writing map faceRegionAddressing from region1 faces back to base mesh.
Writing map cellRegionAddressing from region1 cells back to base mesh.
Writing map boundaryRegionAddressing from region1 boundary back to base mesh.

Region 2
-------- 
Creating mesh for region 2 food
Testing:"/lustre/home/dc010/miriam/02hptMultiRegions/case/system/food/fvSchemes"
Mapping fields
Mapping field cellToRegion
Mapping field p
Mapping field T
Deleting empty patches
Writing new mesh
Writing addressing to base mesh
Writing map pointRegionAddressing from region2 points back to base mesh.
Writing map faceRegionAddressing from region2 faces back to base mesh.
Writing map cellRegionAddressing from region2 cells back to base mesh.
Writing map boundaryRegionAddressing from region2 boundary back to base mesh.

Region 3
-------- 
Creating mesh for region 3 cap
Testing:"/lustre/home/dc010/miriam/02hptMultiRegions/case/system/cap/fvSchemes"
Mapping fields
Mapping field cellToRegion
Mapping field p
Mapping field T
Deleting empty patches
Writing new mesh
Writing addressing to base mesh
Writing map pointRegionAddressing from region3 points back to base mesh.
Writing map faceRegionAddressing from region3 faces back to base mesh.
Writing map cellRegionAddressing from region3 cells back to base mesh.
Writing map boundaryRegionAddressing from region3 boundary back to base mesh.
End

/*---------------------------------------------------------------------------*\
| =========                 |                                                 |
| \\      /  F ield         | OpenFOAM: The Open Source CFD Toolbox           |
|  \\    /   O peration     | Version:  v1706                                 |
|   \\  /    A nd           | Web:      www.OpenFOAM.com                      |
|    \\/     M anipulation  |                                                 |
\*---------------------------------------------------------------------------*/
Build  : v1706
Arch   : "LSB;label=32;scalar=64"
Exec   : changeDictionary -enableFunctionEntries -region cap
Date   : Feb 22 2018
Time   : 15:28:51
Host   : "r1i3n33"
PID    : 44151
Case   : /lustre/home/dc010/miriam/02hptMultiRegions/case
nProcs : 1
sigFpe : Enabling floating point exception trapping (FOAM_SIGFPE).
fileModificationChecking : Monitoring run-time modified files using timeStampMaster (fileModificationSkew 10)
allowSystemOperations : Allowing user-supplied system call operations

// * * * * * * * * * * * * * * * * * * * * * * * * * * * * * * * * * * * * * //
Create time

Create mesh cap for time = 0

--> FOAM Warning : 
    From function void Foam::wedgePolyPatch::calcGeometry(Foam::PstreamBuffers &)
    in file meshes/polyMesh/polyPatches/constraint/wedge/wedgePolyPatch.C at line 70
    Wedge patch 'wedge0' is not planar.
At local face at (0.032344427 0.089279754 -0.0014121882) the normal (-0.043619347 1.4778985e-08 -0.99904822) differs from the average normal (-0.043619387 -6.1476752e-11 -0.99904822) by 1.8283303e-15
Either correct the patch or split it into planar parts
--> FOAM Warning : 
    From function void Foam::wedgePolyPatch::calcGeometry(Foam::PstreamBuffers &)
    in file meshes/polyMesh/polyPatches/constraint/wedge/wedgePolyPatch.C at line 70
    Wedge patch 'wedge0' is not planar.
At local face at (0.027644054 0.1023135 -0.0012069655) the normal (-0.043619416 -2.0793784e-08 -0.99904822) differs from the average normal (-0.043619387 -6.1476752e-11 -0.99904822) by 1.2889712e-15
Either correct the patch or split it into planar parts
--> FOAM Warning : 
    From function void Foam::wedgePolyPatch::calcGeometry(Foam::PstreamBuffers &)
    in file meshes/polyMesh/polyPatches/constraint/wedge/wedgePolyPatch.C at line 70
    Wedge patch 'wedge0' is not planar.
At local face at (0.031084134 0.11051844 -0.0013571626) the normal (-0.043619407 -2.9014837e-08 -0.99904822) differs from the average normal (-0.043619387 -6.1476752e-11 -0.99904822) by 1.2289673e-15
Either correct the patch or split it into planar parts
--> FOAM Warning : 
    From function void Foam::wedgePolyPatch::calcGeometry(Foam::PstreamBuffers &)
    in file meshes/polyMesh/polyPatches/constraint/wedge/wedgePolyPatch.C at line 70
    Wedge patch 'wedge0' is not planar.
At local face at (0.044425939 0.11040868 -0.0019396784) the normal (-0.043619336 -0 -0.99904822) differs from the average normal (-0.043619387 -6.1476752e-11 -0.99904822) by 2.6434096e-15
Either correct the patch or split it into planar parts
--> FOAM Warning : 
    From function void Foam::wedgePolyPatch::calcGeometry(Foam::PstreamBuffers &)
    in file meshes/polyMesh/polyPatches/constraint/wedge/wedgePolyPatch.C at line 70
    Wedge patch 'wedge0' is not planar.
At local face at (0.044425939 0.079591319 -0.0019396784) the normal (-0.043619336 0 -0.99904822) differs from the average normal (-0.043619387 -6.1476752e-11 -0.99904822) by 2.6434096e-15
Either correct the patch or split it into planar parts
--> FOAM Warning : 
    From function void Foam::wedgePolyPatch::calcGeometry(Foam::PstreamBuffers &)
    in file meshes/polyMesh/polyPatches/constraint/wedge/wedgePolyPatch.C at line 70
    Wedge patch 'wedge0' is not planar.
At local face at (0.029876003 0.10102942 -0.0013044145) the normal (-0.043619362 -2.2174085e-08 -0.99904822) differs from the average normal (-0.043619387 -6.1476752e-11 -0.99904822) by 1.1371779e-15
Either correct the patch or split it into planar parts
--> FOAM Warning : 
    From function void Foam::wedgePolyPatch::calcGeometry(Foam::PstreamBuffers &)
    in file meshes/polyMesh/polyPatches/constraint/wedge/wedgePolyPatch.C at line 70
    Wedge patch 'wedge0' is not planar.
At local face at (0.026432978 0.080147108 -0.0011540887) the normal (-0.043619415 3.3627805e-08 -0.99904822) differs from the average normal (-0.043619387 -6.1476752e-11 -0.99904822) by 1.9413934e-15
Either correct the patch or split it into planar parts
--> FOAM Warning : 
    From function void Foam::wedgePolyPatch::calcGeometry(Foam::PstreamBuffers &)
    in file meshes/polyMesh/polyPatches/constraint/wedge/wedgePolyPatch.C at line 70
    Wedge patch 'wedge0' is not planar.
At local face at (0.035289504 0.11365121 -0.001540773) the normal (-0.043619344 8.7834596e-09 -0.99904822) differs from the average normal (-0.043619387 -6.1476752e-11 -0.99904822) by 1.9154569e-15
Either correct the patch or split it into planar parts
--> FOAM Warning : 
    From function void Foam::wedgePolyPatch::calcGeometry(Foam::PstreamBuffers &)
    in file meshes/polyMesh/polyPatches/constraint/wedge/wedgePolyPatch.C at line 70
    Wedge patch 'wedge0' is not planar.
At local face at (0.035289504 0.076348788 -0.001540773) the normal (-0.043619344 -8.7834493e-09 -0.99904822) differs from the average normal (-0.043619387 -6.1476752e-11 -0.99904822) by 1.913295e-15
Either correct the patch or split it into planar parts
--> FOAM Warning : 
    From function void Foam::wedgePolyPatch::calcGeometry(Foam::PstreamBuffers &)
    in file meshes/polyMesh/polyPatches/constraint/wedge/wedgePolyPatch.C at line 70
    Wedge patch 'wedge0' is not planar.
At local face at (0.043676835 0.1099384 -0.0019069718) the normal (-0.043619359 -1.6877898e-08 -0.99904822) differs from the average normal (-0.043619387 -6.1476752e-11 -0.99904822) by 1.0590713e-15
Either correct the patch or split it into planar parts
--> FOAM Warning : 
    From function void Foam::wedgePolyPatch::calcGeometry(Foam::PstreamBuffers &)
    in file meshes/polyMesh/polyPatches/constraint/wedge/wedgePolyPatch.C at line 70
    Wedge patch 'wedge0' is not planar.
At local face at (0.043676835 0.080061601 -0.0019069718) the normal (-0.043619359 1.6877837e-08 -0.99904822) differs from the average normal (-0.043619387 -6.1476752e-11 -0.99904822) by 1.0632226e-15
Either correct the patch or split it into planar parts
--> FOAM Warning : 
    From function void Foam::wedgePolyPatch::calcGeometry(Foam::PstreamBuffers &)
    in file meshes/polyMesh/polyPatches/constraint/wedge/wedgePolyPatch.C at line 70
    Wedge patch 'wedge0' is not planar.
At local face at (0.026306763 0.086909592 -0.0011485781) the normal (-0.043619415 1.7760931e-08 -0.99904822) differs from the average normal (-0.043619387 -6.1476752e-11 -0.99904822) by 1.0970597e-15
Either correct the patch or split it into planar parts
--> FOAM Warning : 
    From function void Foam::wedgePolyPatch::calcGeometry(Foam::PstreamBuffers &)
    in file meshes/polyMesh/polyPatches/constraint/wedge/wedgePolyPatch.C at line 70
    Wedge patch 'wedge0' is not planar.
At local face at (0.03618576 0.10047261 -0.0015799044) the normal (-0.043619413 2.868436e-08 -0.99904822) differs from the average normal (-0.043619387 -6.1476752e-11 -0.99904822) by 1.5226888e-15
Either correct the patch or split it into planar parts
--> FOAM Warning : 
    From function void Foam::wedgePolyPatch::calcGeometry(Foam::PstreamBuffers &)
    in file meshes/polyMesh/polyPatches/constraint/wedge/wedgePolyPatch.C at line 70
    Wedge patch 'wedge0' is not planar.
At local face at (0.02980448 0.10201625 -0.0013012917) the normal (-0.04361936 -3.1503802e-08 -0.99904822) differs from the average normal (-0.043619387 -6.1476752e-11 -0.99904822) by 1.6977612e-15
Either correct the patch or split it into planar parts
--> FOAM Warning : 
    From function void Foam::wedgePolyPatch::calcGeometry(Foam::PstreamBuffers &)
    in file meshes/polyMesh/polyPatches/constraint/wedge/wedgePolyPatch.C at line 70
    Wedge patch 'wedge0' is not planar.
At local face at (0.040080768 0.10939668 -0.0017499641) the normal (-0.043619346 7.5460516e-09 -0.99904822) differs from the average normal (-0.043619387 -6.1476752e-11 -0.99904822) by 1.7391751e-15
Either correct the patch or split it into planar parts
--> FOAM Warning : 
    From function void Foam::wedgePolyPatch::calcGeometry(Foam::PstreamBuffers &)
    in file meshes/polyMesh/polyPatches/constraint/wedge/wedgePolyPatch.C at line 70
    Wedge patch 'wedge0' is not planar.
At local face at (0.040080768 0.080603321 -0.0017499641) the normal (-0.043619346 -7.5460503e-09 -0.99904822) differs from the average normal (-0.043619387 -6.1476752e-11 -0.99904822) by 1.7373186e-15
Either correct the patch or split it into planar parts
--> FOAM Warning : 
    From function void Foam::wedgePolyPatch::calcGeometry(Foam::PstreamBuffers &)
    in file meshes/polyMesh/polyPatches/constraint/wedge/wedgePolyPatch.C at line 70
    Wedge patch 'wedge0' is not planar.
At local face at (0.040501787 0.11027185 -0.0017683462) the normal (-0.043619365 -5.41053e-08 -0.99904822) differs from the average normal (-0.043619387 -6.1476752e-11 -0.99904822) by 3.3858998e-15
Either correct the patch or split it into planar parts
--> FOAM Warning : 
    From function void Foam::wedgePolyPatch::calcGeometry(Foam::PstreamBuffers &)
    in file meshes/polyMesh/polyPatches/constraint/wedge/wedgePolyPatch.C at line 70
    Wedge patch 'wedge0' is not planar.
At local face at (0.040501787 0.079728155 -0.0017683462) the normal (-0.043619365 5.4105449e-08 -0.99904822) differs from the average normal (-0.043619387 -6.1476752e-11 -0.99904822) by 3.3992223e-15
Either correct the patch or split it into planar parts
--> FOAM Warning : 
    From function void Foam::wedgePolyPatch::calcGeometry(Foam::PstreamBuffers &)
    in file meshes/polyMesh/polyPatches/constraint/wedge/wedgePolyPatch.C at line 70
    Wedge patch 'wedge0' is not planar.
At local face at (0.035225703 0.11239013 -0.0015379874) the normal (-0.043619339 -2.0464471e-08 -0.99904822) differs from the average normal (-0.043619387 -6.1476752e-11 -0.99904822) by 2.7097117e-15
Either correct the patch or split it into planar parts
--> FOAM Warning : 
    From function void Foam::wedgePolyPatch::calcGeometry(Foam::PstreamBuffers &)
    in file meshes/polyMesh/polyPatches/constraint/wedge/wedgePolyPatch.C at line 70
    Wedge patch 'wedge0' is not planar.
At local face at (0.035225668 0.077609873 -0.0015379859) the normal (-0.043619346 -2.1684526e-08 -0.99904822) differs from the average normal (-0.043619387 -6.1476752e-11 -0.99904822) by 2.1196094e-15
Either correct the patch or split it into planar parts
--> FOAM Warning : 
    From function void Foam::wedgePolyPatch::calcGeometry(Foam::PstreamBuffers &)
    in file meshes/polyMesh/polyPatches/constraint/wedge/wedgePolyPatch.C at line 70
    Wedge patch 'wedge0' is not planar.
At local face at (0.036057745 0.078112726 -0.0015743151) the normal (-0.04361936 -2.9697276e-08 -0.99904822) differs from the average normal (-0.043619387 -6.1476752e-11 -0.99904822) by 1.6151819e-15
Either correct the patch or split it into planar parts
--> FOAM Warning : 
    From function void Foam::wedgePolyPatch::calcGeometry(Foam::PstreamBuffers &)
    in file meshes/polyMesh/polyPatches/constraint/wedge/wedgePolyPatch.C at line 70
    Wedge patch 'wedge0' is not planar.
At local face at (0.044242191 0.10385366 -0.0019316558) the normal (-0.043619354 0 -0.99904822) differs from the average normal (-0.043619387 -6.1476752e-11 -0.99904822) by 1.0921516e-15
Either correct the patch or split it into planar parts
--> FOAM Warning : 
    From function void Foam::wedgePolyPatch::calcGeometry(Foam::PstreamBuffers &)
    in file meshes/polyMesh/polyPatches/constraint/wedge/wedgePolyPatch.C at line 70
    Wedge patch 'wedge0' is not planar.
At local face at (0.032020714 0.080153628 -0.0013980546) the normal (-0.043619365 2.5702846e-08 -0.99904822) differs from the average normal (-0.043619387 -6.1476752e-11 -0.99904822) by 1.1458195e-15
Either correct the patch or split it into planar parts
--> FOAM Warning : 
    From function void Foam::wedgePolyPatch::calcGeometry(Foam::PstreamBuffers &)
    in file meshes/polyMesh/polyPatches/constraint/wedge/wedgePolyPatch.C at line 70
    Wedge patch 'wedge0' is not planar.
At local face at (0.032137089 0.10999287 -0.0014031356) the normal (-0.043619385 -3.8473803e-08 -0.99904822) differs from the average normal (-0.043619387 -6.1476752e-11 -0.99904822) by 1.4776538e-15
Either correct the patch or split it into planar parts
--> FOAM Warning : 
    From function void Foam::wedgePolyPatch::calcGeometry(Foam::PstreamBuffers &)
    in file meshes/polyMesh/polyPatches/constraint/wedge/wedgePolyPatch.C at line 70
    Wedge patch 'wedge0' is not planar.
At local face at (0.024913722 0.10984811 -0.0010877566) the normal (-0.043619348 -8.2239688e-09 -0.99904822) differs from the average normal (-0.043619387 -6.1476752e-11 -0.99904822) by 1.6083474e-15
Either correct the patch or split it into planar parts
--> FOAM Warning : 
    From function void Foam::wedgePolyPatch::calcGeometry(Foam::PstreamBuffers &)
    in file meshes/polyMesh/polyPatches/constraint/wedge/wedgePolyPatch.C at line 70
    Wedge patch 'wedge0' is not planar.
At local face at (0.040341459 0.11233707 -0.0017613461) the normal (-0.043619397 3.6835713e-08 -0.99904822) differs from the average normal (-0.043619387 -6.1476752e-11 -0.99904822) by 1.4615634e-15
Either correct the patch or split it into planar parts
--> FOAM Warning : 
    From function void Foam::wedgePolyPatch::calcGeometry(Foam::PstreamBuffers &)
    in file meshes/polyMesh/polyPatches/constraint/wedge/wedgePolyPatch.C at line 70
    Wedge patch 'wedge0' is not planar.
At local face at (0.040341459 0.077662928 -0.0017613461) the normal (-0.043619397 -3.6835563e-08 -0.99904822) differs from the average normal (-0.043619387 -6.1476752e-11 -0.99904822) by 1.4524931e-15
Either correct the patch or split it into planar parts
--> FOAM Warning : 
    From function void Foam::wedgePolyPatch::calcGeometry(Foam::PstreamBuffers &)
    in file meshes/polyMesh/polyPatches/constraint/wedge/wedgePolyPatch.C at line 70
    Wedge patch 'wedge0' is not planar.
At local face at (0.041511935 0.10677662 -0.0018124502) the normal (-0.043619409 -3.228888e-08 -0.99904822) differs from the average normal (-0.043619387 -6.1476752e-11 -0.99904822) by 1.5265481e-15
Either correct the patch or split it into planar parts
--> FOAM Warning : 
    From function void Foam::wedgePolyPatch::calcGeometry(Foam::PstreamBuffers &)
    in file meshes/polyMesh/polyPatches/constraint/wedge/wedgePolyPatch.C at line 70
    Wedge patch 'wedge0' is not planar.
At local face at (0.037166237 0.10111235 -0.0016227129) the normal (-0.043619398 3.6749864e-08 -0.99904822) differs from the average normal (-0.043619387 -6.1476752e-11 -0.99904822) by 1.4815468e-15
Either correct the patch or split it into planar parts
--> FOAM Warning : 
    From function void Foam::wedgePolyPatch::calcGeometry(Foam::PstreamBuffers &)
    in file meshes/polyMesh/polyPatches/constraint/wedge/wedgePolyPatch.C at line 70
    Wedge patch 'wedge0' is not planar.
At local face at (0.02447737 0.10893284 -0.0010687051) the normal (-0.04361935 -1.4309354e-08 -0.99904822) differs from the average normal (-0.043619387 -6.1476752e-11 -0.99904822) by 1.5673869e-15
Either correct the patch or split it into planar parts
--> FOAM Warning : 
    From function void Foam::wedgePolyPatch::calcGeometry(Foam::PstreamBuffers &)
    in file meshes/polyMesh/polyPatches/constraint/wedge/wedgePolyPatch.C at line 70
    Wedge patch 'wedge0' is not planar.
At local face at (0.042497167 0.082753253 -0.0018554664) the normal (-0.043619347 -9.6471525e-11 -0.99904822) differs from the average normal (-0.043619387 -6.1476752e-11 -0.99904822) by 1.6126848e-15
Either correct the patch or split it into planar parts
--> FOAM Warning : 
    From function void Foam::wedgePolyPatch::calcGeometry(Foam::PstreamBuffers &)
    in file meshes/polyMesh/polyPatches/constraint/wedge/wedgePolyPatch.C at line 70
    Wedge patch 'wedge0' is not planar.
At local face at (0.042256482 0.078287078 -0.0018449579) the normal (-0.04361939 -5.9632497e-08 -0.99904822) differs from the average normal (-0.043619387 -6.1476752e-11 -0.99904822) by 3.5555031e-15
Either correct the patch or split it into planar parts
--> FOAM Warning : 
    From function void Foam::wedgePolyPatch::calcGeometry(Foam::PstreamBuffers &)
    in file meshes/polyMesh/polyPatches/constraint/wedge/wedgePolyPatch.C at line 70
    Wedge patch 'wedge0' is not planar.
At local face at (0.042256482 0.11171292 -0.0018449579) the normal (-0.04361939 5.9632403e-08 -0.99904822) differs from the average normal (-0.043619387 -6.1476752e-11 -0.99904822) by 3.5701549e-15
Either correct the patch or split it into planar parts
--> FOAM Warning : 
    From function void Foam::wedgePolyPatch::calcGeometry(Foam::PstreamBuffers &)
    in file meshes/polyMesh/polyPatches/constraint/wedge/wedgePolyPatch.C at line 70
    Wedge patch 'wedge0' is not planar.
At local face at (0.026436423 0.079064634 -0.0011542391) the normal (-0.043619394 -3.5128503e-08 -0.99904822) differs from the average normal (-0.043619387 -6.1476752e-11 -0.99904822) by 1.2762848e-15
Either correct the patch or split it into planar parts
--> FOAM Warning : 
    From function void Foam::wedgePolyPatch::calcGeometry(Foam::PstreamBuffers &)
    in file meshes/polyMesh/polyPatches/constraint/wedge/wedgePolyPatch.C at line 70
    Wedge patch 'wedge0' is not planar.
At local face at (0.040301433 0.075564108 -0.0017595986) the normal (-0.043619388 3.3897125e-08 -0.99904822) differs from the average normal (-0.043619387 -6.1476752e-11 -0.99904822) by 1.1543757e-15
Either correct the patch or split it into planar parts
--> FOAM Warning : 
    From function void Foam::wedgePolyPatch::calcGeometry(Foam::PstreamBuffers &)
    in file meshes/polyMesh/polyPatches/constraint/wedge/wedgePolyPatch.C at line 70
    Wedge patch 'wedge0' is not planar.
At local face at (0.040301433 0.11443589 -0.0017595986) the normal (-0.043619388 -3.3897025e-08 -0.99904822) differs from the average normal (-0.043619387 -6.1476752e-11 -0.99904822) by 1.1460334e-15
Either correct the patch or split it into planar parts
--> FOAM Warning : 
    From function void Foam::wedgePolyPatch::calcGeometry(Foam::PstreamBuffers &)
    in file meshes/polyMesh/polyPatches/constraint/wedge/wedgePolyPatch.C at line 70
    Wedge patch 'wedge0' is not planar.
At local face at (0.028978808 0.10020893 -0.0012652421) the normal (-0.043619351 -1.2295073e-08 -0.99904822) differs from the average normal (-0.043619387 -6.1476752e-11 -0.99904822) by 1.4294026e-15
Either correct the patch or split it into planar parts
--> FOAM Warning : 
    From function void Foam::wedgePolyPatch::calcGeometry(Foam::PstreamBuffers &)
    in file meshes/polyMesh/polyPatches/constraint/wedge/wedgePolyPatch.C at line 70
    Wedge patch 'wedge0' is not planar.
At local face at (0.026084311 0.097166867 -0.0011388656) the normal (-0.043619361 -2.9921607e-08 -0.99904822) differs from the average normal (-0.043619387 -6.1476752e-11 -0.99904822) by 1.5778143e-15
Either correct the patch or split it into planar parts
--> FOAM Warning : 
    From function void Foam::wedgePolyPatch::calcGeometry(Foam::PstreamBuffers &)
    in file meshes/polyMesh/polyPatches/constraint/wedge/wedgePolyPatch.C at line 70
    Wedge patch 'wedge0' is not planar.
At local face at (0.042992583 0.077551985 -0.0018770967) the normal (-0.043619431 -2.5377543e-08 -0.99904822) differs from the average normal (-0.043619387 -6.1476752e-11 -0.99904822) by 2.6029437e-15
Either correct the patch or split it into planar parts
--> FOAM Warning : 
    From function void Foam::wedgePolyPatch::calcGeometry(Foam::PstreamBuffers &)
    in file meshes/polyMesh/polyPatches/constraint/wedge/wedgePolyPatch.C at line 70
    Wedge patch 'wedge0' is not planar.
At local face at (0.042992583 0.11244801 -0.0018770967) the normal (-0.043619431 2.5377551e-08 -0.99904822) differs from the average normal (-0.043619387 -6.1476752e-11 -0.99904822) by 2.6091722e-15
Either correct the patch or split it into planar parts
--> FOAM Warning : 
    From function void Foam::wedgePolyPatch::calcGeometry(Foam::PstreamBuffers &)
    in file meshes/polyMesh/polyPatches/constraint/wedge/wedgePolyPatch.C at line 70
    Wedge patch 'wedge0' is not planar.
At local face at (0.029972492 0.10817467 -0.0013086273) the normal (-0.043619372 3.2241814e-08 -0.99904822) differs from the average normal (-0.043619387 -6.1476752e-11 -0.99904822) by 1.2708961e-15
Either correct the patch or split it into planar parts
--> FOAM Warning : 
    From function void Foam::wedgePolyPatch::calcGeometry(Foam::PstreamBuffers &)
    in file meshes/polyMesh/polyPatches/constraint/wedge/wedgePolyPatch.C at line 70
    Wedge patch 'wedge0' is not planar.
At local face at (0.031048163 0.10765758 -0.0013555921) the normal (-0.043619378 3.562612e-08 -0.99904822) differs from the average normal (-0.043619387 -6.1476752e-11 -0.99904822) by 1.3473133e-15
Either correct the patch or split it into planar parts
--> FOAM Warning : 
    From function void Foam::wedgePolyPatch::calcGeometry(Foam::PstreamBuffers &)
    in file meshes/polyMesh/polyPatches/constraint/wedge/wedgePolyPatch.C at line 70
    Wedge patch 'wedge0' is not planar.
At local face at (0.043676962 0.092308705 -0.0019069773) the normal (-0.043619406 3.8740175e-08 -0.99904822) differs from the average normal (-0.043619387 -6.1476752e-11 -0.99904822) by 1.8668075e-15
Either correct the patch or split it into planar parts
--> FOAM Warning : 
    From function void Foam::wedgePolyPatch::calcGeometry(Foam::PstreamBuffers &)
    in file meshes/polyMesh/polyPatches/constraint/wedge/wedgePolyPatch.C at line 70
    Wedge patch 'wedge0' is not planar.
At local face at (0.041389742 0.1124068 -0.0018071152) the normal (-0.043619367 4.3401043e-08 -0.99904822) differs from the average normal (-0.043619387 -6.1476752e-11 -0.99904822) by 2.2909442e-15
Either correct the patch or split it into planar parts
--> FOAM Warning : 
    From function void Foam::wedgePolyPatch::calcGeometry(Foam::PstreamBuffers &)
    in file meshes/polyMesh/polyPatches/constraint/wedge/wedgePolyPatch.C at line 70
    Wedge patch 'wedge0' is not planar.
At local face at (0.041389742 0.077593201 -0.0018071152) the normal (-0.043619367 -4.3400889e-08 -0.99904822) differs from the average normal (-0.043619387 -6.1476752e-11 -0.99904822) by 2.280265e-15
Either correct the patch or split it into planar parts
--> FOAM Warning : 
    From function void Foam::wedgePolyPatch::calcGeometry(Foam::PstreamBuffers &)
    in file meshes/polyMesh/polyPatches/constraint/wedge/wedgePolyPatch.C at line 70
    Wedge patch 'wedge0' is not planar.
At local face at (0.043912586 0.077434248 -0.0019172649) the normal (-0.043619362 -2.3719702e-08 -0.99904822) differs from the average normal (-0.043619387 -6.1476752e-11 -0.99904822) by 1.1865405e-15
Either correct the patch or split it into planar parts
--> FOAM Warning : 
    From function void Foam::wedgePolyPatch::calcGeometry(Foam::PstreamBuffers &)
    in file meshes/polyMesh/polyPatches/constraint/wedge/wedgePolyPatch.C at line 70
    Wedge patch 'wedge0' is not planar.
At local face at (0.043912586 0.11256575 -0.0019172649) the normal (-0.043619362 2.3719714e-08 -0.99904822) differs from the average normal (-0.043619387 -6.1476752e-11 -0.99904822) by 1.192371e-15
Either correct the patch or split it into planar parts
--> FOAM Warning : 
    From function void Foam::wedgePolyPatch::calcGeometry(Foam::PstreamBuffers &)
    in file meshes/polyMesh/polyPatches/constraint/wedge/wedgePolyPatch.C at line 70
    Wedge patch 'wedge0' is not planar.
At local face at (0.038001069 0.10557397 -0.0016591625) the normal (-0.043619343 1.9276115e-08 -0.99904822) differs from the average normal (-0.043619387 -6.1476752e-11 -0.99904822) by 2.3462491e-15
Either correct the patch or split it into planar parts
--> FOAM Warning : 
    From function void Foam::wedgePolyPatch::calcGeometry(Foam::PstreamBuffers &)
    in file meshes/polyMesh/polyPatches/constraint/wedge/wedgePolyPatch.C at line 70
    Wedge patch 'wedge0' is not planar.
At local face at (0.027018613 0.081161875 -0.0011796581) the normal (-0.043619467 -1.4956271e-08 -0.99904822) differs from the average normal (-0.043619387 -6.1476752e-11 -0.99904822) by 6.5705432e-15
Either correct the patch or split it into planar parts
--> FOAM Warning : 
    From function void Foam::wedgePolyPatch::calcGeometry(Foam::PstreamBuffers &)
    in file meshes/polyMesh/polyPatches/constraint/wedge/wedgePolyPatch.C at line 70
    Wedge patch 'wedge0' is not planar.
At local face at (0.030656383 0.10286012 -0.0013384866) the normal (-0.043619347 -1.7944432e-08 -0.99904822) differs from the average normal (-0.043619387 -6.1476752e-11 -0.99904822) by 1.8847768e-15
Either correct the patch or split it into planar parts
--> FOAM Warning : 
    From function void Foam::wedgePolyPatch::calcGeometry(Foam::PstreamBuffers &)
    in file meshes/polyMesh/polyPatches/constraint/wedge/wedgePolyPatch.C at line 70
    Wedge patch 'wedge0' is not planar.
At local face at (0.038032907 0.10071663 -0.0016605526) the normal (-0.043619356 1.9352986e-08 -0.99904822) differs from the average normal (-0.043619387 -6.1476752e-11 -0.99904822) by 1.3204368e-15
Either correct the patch or split it into planar parts
--> FOAM Warning : 
    From function void Foam::wedgePolyPatch::calcGeometry(Foam::PstreamBuffers &)
    in file meshes/polyMesh/polyPatches/constraint/wedge/wedgePolyPatch.C at line 70
    Wedge patch 'wedge0' is not planar.
At local face at (0.025742069 0.098098533 -0.001123923) the normal (-0.043619392 3.1213692e-08 -0.99904822) differs from the average normal (-0.043619387 -6.1476752e-11 -0.99904822) by 1.0012477e-15
Either correct the patch or split it into planar parts
--> FOAM Warning : 
    From function void Foam::wedgePolyPatch::calcGeometry(Foam::PstreamBuffers &)
    in file meshes/polyMesh/polyPatches/constraint/wedge/wedgePolyPatch.C at line 70
    Wedge patch 'wedge0' is not planar.
At local face at (0.037261541 0.084937574 -0.001626874) the normal (-0.043619355 5.0313028e-09 -0.99904822) differs from the average normal (-0.043619387 -6.1476752e-11 -0.99904822) by 1.0400135e-15
Either correct the patch or split it into planar parts
--> FOAM Warning : 
    From function void Foam::wedgePolyPatch::calcGeometry(Foam::PstreamBuffers &)
    in file meshes/polyMesh/polyPatches/constraint/wedge/wedgePolyPatch.C at line 70
    Wedge patch 'wedge0' is not planar.
At local face at (0.02932455 0.095034688 -0.0012803375) the normal (-0.043619349 -1.5981803e-08 -0.99904822) differs from the average normal (-0.043619387 -6.1476752e-11 -0.99904822) by 1.663392e-15
Either correct the patch or split it into planar parts
--> FOAM Warning : 
    From function void Foam::wedgePolyPatch::calcGeometry(Foam::PstreamBuffers &)
    in file meshes/polyMesh/polyPatches/constraint/wedge/wedgePolyPatch.C at line 70
    Wedge patch 'wedge0' is not planar.
At local face at (0.039145892 0.105015 -0.0017091466) the normal (-0.043619379 3.1688678e-08 -0.99904822) differs from the average normal (-0.043619387 -6.1476752e-11 -0.99904822) by 1.0773526e-15
Either correct the patch or split it into planar parts
--> FOAM Warning : 
    From function void Foam::wedgePolyPatch::calcGeometry(Foam::PstreamBuffers &)
    in file meshes/polyMesh/polyPatches/constraint/wedge/wedgePolyPatch.C at line 70
    Wedge patch 'wedge0' is not planar.
At local face at (0.039800608 0.10065012 -0.0017377321) the normal (-0.043619413 -1.9878705e-08 -0.99904822) differs from the average normal (-0.043619387 -6.1476752e-11 -0.99904822) by 1.0479112e-15
Either correct the patch or split it into planar parts
--> FOAM Warning : 
    From function void Foam::wedgePolyPatch::calcGeometry(Foam::PstreamBuffers &)
    in file meshes/polyMesh/polyPatches/constraint/wedge/wedgePolyPatch.C at line 70
    Wedge patch 'wedge0' is not planar.
At local face at (0.025505006 0.080416106 -0.0011135726) the normal (-0.043619338 9.4964004e-09 -0.99904822) differs from the average normal (-0.043619387 -6.1476752e-11 -0.99904822) by 2.5338502e-15
Either correct the patch or split it into planar parts
--> FOAM Warning : 
    From function void Foam::wedgePolyPatch::calcGeometry(Foam::PstreamBuffers &)
    in file meshes/polyMesh/polyPatches/constraint/wedge/wedgePolyPatch.C at line 70
    Wedge patch 'wedge0' is not planar.
At local face at (0.03385709 0.097420112 -0.0014782325) the normal (-0.043619444 1.7434946e-08 -0.99904822) differs from the average normal (-0.043619387 -6.1476752e-11 -0.99904822) by 3.5817764e-15
Either correct the patch or split it into planar parts
--> FOAM Warning : 
    From function void Foam::wedgePolyPatch::calcGeometry(Foam::PstreamBuffers &)
    in file meshes/polyMesh/polyPatches/constraint/wedge/wedgePolyPatch.C at line 70
    Wedge patch 'wedge0' is not planar.
At local face at (0.03211854 0.076221023 -0.0014023257) the normal (-0.043619396 3.4721336e-08 -0.99904822) differs from the average normal (-0.043619387 -6.1476752e-11 -0.99904822) by 1.2969646e-15
Either correct the patch or split it into planar parts
--> FOAM Warning : 
    From function void Foam::wedgePolyPatch::calcGeometry(Foam::PstreamBuffers &)
    in file meshes/polyMesh/polyPatches/constraint/wedge/wedgePolyPatch.C at line 70
    Wedge patch 'wedge0' is not planar.
At local face at (0.027124781 0.078529404 -0.0011842935) the normal (-0.043619433 -8.4863434e-09 -0.99904822) differs from the average normal (-0.043619387 -6.1476752e-11 -0.99904822) by 2.1759819e-15
Either correct the patch or split it into planar parts
--> FOAM Warning : 
    From function void Foam::wedgePolyPatch::calcGeometry(Foam::PstreamBuffers &)
    in file meshes/polyMesh/polyPatches/constraint/wedge/wedgePolyPatch.C at line 70
    Wedge patch 'wedge0' is not planar.
At local face at (0.024076152 0.096329211 -0.0010511875) the normal (-0.043619411 -2.3333391e-08 -0.99904822) differs from the average normal (-0.043619387 -6.1476752e-11 -0.99904822) by 1.1272772e-15
Either correct the patch or split it into planar parts
--> FOAM Warning : 
    From function void Foam::wedgePolyPatch::calcGeometry(Foam::PstreamBuffers &)
    in file meshes/polyMesh/polyPatches/constraint/wedge/wedgePolyPatch.C at line 70
    Wedge patch 'wedge0' is not planar.
At local face at (0.035392311 0.085891792 -0.0015452617) the normal (-0.043619413 -3.5260848e-08 -0.99904822) differs from the average normal (-0.043619387 -6.1476752e-11 -0.99904822) by 1.9386045e-15
Either correct the patch or split it into planar parts
--> FOAM Warning : 
    From function void Foam::wedgePolyPatch::calcGeometry(Foam::PstreamBuffers &)
    in file meshes/polyMesh/polyPatches/constraint/wedge/wedgePolyPatch.C at line 70
    Wedge patch 'wedge0' is not planar.
At local face at (0.023938817 0.097547363 -0.0010451913) the normal (-0.043619426 4.1028479e-08 -0.99904822) differs from the average normal (-0.043619387 -6.1476752e-11 -0.99904822) by 3.2496611e-15
Either correct the patch or split it into planar parts
--> FOAM Warning : 
    From function void Foam::wedgePolyPatch::calcGeometry(Foam::PstreamBuffers &)
    in file meshes/polyMesh/polyPatches/constraint/wedge/wedgePolyPatch.C at line 70
    Wedge patch 'wedge0' is not planar.
At local face at (0.029896039 0.095898017 -0.0013052892) the normal (-0.043619341 -1.7144283e-09 -0.99904822) differs from the average normal (-0.043619387 -6.1476752e-11 -0.99904822) by 2.0748665e-15
Either correct the patch or split it into planar parts
--> FOAM Warning : 
    From function void Foam::wedgePolyPatch::calcGeometry(Foam::PstreamBuffers &)
    in file meshes/polyMesh/polyPatches/constraint/wedge/wedgePolyPatch.C at line 70
    Wedge patch 'wedge0' is not planar.
At local face at (0.040459767 0.082785202 -0.0017665116) the normal (-0.043619424 5.7052067e-09 -0.99904822) differs from the average normal (-0.043619387 -6.1476752e-11 -0.99904822) by 1.4059068e-15
Either correct the patch or split it into planar parts
--> FOAM Warning : 
    From function void Foam::wedgePolyPatch::calcGeometry(Foam::PstreamBuffers &)
    in file meshes/polyMesh/polyPatches/constraint/wedge/wedgePolyPatch.C at line 70
    Wedge patch 'wedge0' is not planar.
At local face at (0.040445589 0.10721789 -0.0017658926) the normal (-0.04361941 -3.1725715e-08 -0.99904822) differs from the average normal (-0.043619387 -6.1476752e-11 -0.99904822) by 1.5309396e-15
Either correct the patch or split it into planar parts
--> FOAM Warning : 
    From function void Foam::wedgePolyPatch::calcGeometry(Foam::PstreamBuffers &)
    in file meshes/polyMesh/polyPatches/constraint/wedge/wedgePolyPatch.C at line 70
    Wedge patch 'wedge0' is not planar.
At local face at (0.033877504 0.11451978 -0.0014791238) the normal (-0.043619359 -2.3777769e-08 -0.99904822) differs from the average normal (-0.043619387 -6.1476752e-11 -0.99904822) by 1.3285153e-15
Either correct the patch or split it into planar parts
--> FOAM Warning : 
    From function void Foam::wedgePolyPatch::calcGeometry(Foam::PstreamBuffers &)
    in file meshes/polyMesh/polyPatches/constraint/wedge/wedgePolyPatch.C at line 70
    Wedge patch 'wedge0' is not planar.
At local face at (0.033877504 0.075480216 -0.0014791238) the normal (-0.043619359 2.3777786e-08 -0.99904822) differs from the average normal (-0.043619387 -6.1476752e-11 -0.99904822) by 1.3343632e-15
Either correct the patch or split it into planar parts
--> FOAM Warning : 
    From function void Foam::wedgePolyPatch::calcGeometry(Foam::PstreamBuffers &)
    in file meshes/polyMesh/polyPatches/constraint/wedge/wedgePolyPatch.C at line 70
    Wedge patch 'wedge0' is not planar.
At local face at (0.027031103 0.11153213 -0.0011802035) the normal (-0.043619422 -1.1164923e-09 -0.99904822) differs from the average normal (-0.043619387 -6.1476752e-11 -0.99904822) by 1.2643357e-15
Either correct the patch or split it into planar parts
--> FOAM Warning : 
    From function void Foam::wedgePolyPatch::calcGeometry(Foam::PstreamBuffers &)
    in file meshes/polyMesh/polyPatches/constraint/wedge/wedgePolyPatch.C at line 70
    Wedge patch 'wedge0' is not planar.
At local face at (0.040270309 0.082032703 -0.0017582397) the normal (-0.043619422 1.3685193e-08 -0.99904822) differs from the average normal (-0.043619387 -6.1476752e-11 -0.99904822) by 1.4122128e-15
Either correct the patch or split it into planar parts
--> FOAM Warning : 
    From function void Foam::wedgePolyPatch::calcGeometry(Foam::PstreamBuffers &)
    in file meshes/polyMesh/polyPatches/constraint/wedge/wedgePolyPatch.C at line 70
    Wedge patch 'wedge0' is not planar.
At local face at (0.028406675 0.084815042 -0.0012402622) the normal (-0.043619378 4.1669823e-08 -0.99904822) differs from the average normal (-0.043619387 -6.1476752e-11 -0.99904822) by 1.8250403e-15
Either correct the patch or split it into planar parts
--> FOAM Warning : 
    From function void Foam::wedgePolyPatch::calcGeometry(Foam::PstreamBuffers &)
    in file meshes/polyMesh/polyPatches/constraint/wedge/wedgePolyPatch.C at line 70
    Wedge patch 'wedge0' is not planar.
At local face at (0.024603592 0.08177477 -0.001074216) the normal (-0.043619357 2.0065339e-08 -0.99904822) differs from the average normal (-0.043619387 -6.1476752e-11 -0.99904822) by 1.2878414e-15
Either correct the patch or split it into planar parts
--> FOAM Warning : 
    From function void Foam::wedgePolyPatch::calcGeometry(Foam::PstreamBuffers &)
    in file meshes/polyMesh/polyPatches/constraint/wedge/wedgePolyPatch.C at line 70
    Wedge patch 'wedge0' is not planar.
At local face at (0.024622932 0.076262698 -0.0010750604) the normal (-0.043619328 2.8041412e-08 -0.99904822) differs from the average normal (-0.043619387 -6.1476752e-11 -0.99904822) by 4.2310129e-15
Either correct the patch or split it into planar parts
--> FOAM Warning : 
    From function void Foam::wedgePolyPatch::calcGeometry(Foam::PstreamBuffers &)
    in file meshes/polyMesh/polyPatches/constraint/wedge/wedgePolyPatch.C at line 70
    Wedge patch 'wedge0' is not planar.
At local face at (0.031695716 0.095313884 -0.0013838648) the normal (-0.04361943 1.1037401e-08 -0.99904822) differs from the average normal (-0.043619387 -6.1476752e-11 -0.99904822) by 1.9956237e-15
Either correct the patch or split it into planar parts
--> FOAM Warning : 
    From function void Foam::wedgePolyPatch::calcGeometry(Foam::PstreamBuffers &)
    in file meshes/polyMesh/polyPatches/constraint/wedge/wedgePolyPatch.C at line 70
    Wedge patch 'wedge0' is not planar.
At local face at (0.031604824 0.094518477 -0.0013798964) the normal (-0.043619433 -9.56366e-09 -0.99904822) differs from the average normal (-0.043619387 -6.1476752e-11 -0.99904822) by 2.2164196e-15
Either correct the patch or split it into planar parts
--> FOAM Warning : 
    From function void Foam::wedgePolyPatch::calcGeometry(Foam::PstreamBuffers &)
    in file meshes/polyMesh/polyPatches/constraint/wedge/wedgePolyPatch.C at line 70
    Wedge patch 'wedge0' is not planar.
At local face at (0.02713352 0.086401809 -0.0011846751) the normal (-0.043619354 -2.7284351e-08 -0.99904822) differs from the average normal (-0.043619387 -6.1476752e-11 -0.99904822) by 1.8622628e-15
Either correct the patch or split it into planar parts
--> FOAM Warning : 
    From function void Foam::wedgePolyPatch::calcGeometry(Foam::PstreamBuffers &)
    in file meshes/polyMesh/polyPatches/constraint/wedge/wedgePolyPatch.C at line 70
    Wedge patch 'wedge0' is not planar.
At local face at (0.025459396 0.081510528 -0.0011115812) the normal (-0.043619339 1.2708567e-08 -0.99904822) differs from the average normal (-0.043619387 -6.1476752e-11 -0.99904822) by 2.4881547e-15
Either correct the patch or split it into planar parts
--> FOAM Warning : 
    From function void Foam::wedgePolyPatch::calcGeometry(Foam::PstreamBuffers &)
    in file meshes/polyMesh/polyPatches/constraint/wedge/wedgePolyPatch.C at line 70
    Wedge patch 'wedge0' is not planar.
At local face at (0.042717246 0.10032938 -0.0018650752) the normal (-0.043619421 -5.5081548e-09 -0.99904822) differs from the average normal (-0.043619387 -6.1476752e-11 -0.99904822) by 1.2016388e-15
Either correct the patch or split it into planar parts
--> FOAM Warning : 
    From function void Foam::wedgePolyPatch::calcGeometry(Foam::PstreamBuffers &)
    in file meshes/polyMesh/polyPatches/constraint/wedge/wedgePolyPatch.C at line 70
    Wedge patch 'wedge0' is not planar.
At local face at (0.027373236 0.084534393 -0.0011951413) the normal (-0.043619425 2.7682317e-08 -0.99904822) differs from the average normal (-0.043619387 -6.1476752e-11 -0.99904822) by 2.240896e-15
Either correct the patch or split it into planar parts
--> FOAM Warning : 
    From function void Foam::wedgePolyPatch::calcGeometry(Foam::PstreamBuffers &)
    in file meshes/polyMesh/polyPatches/constraint/wedge/wedgePolyPatch.C at line 70
    Wedge patch 'wedge0' is not planar.
At local face at (0.030424971 0.10465454 -0.0013283829) the normal (-0.043619417 1.2591854e-08 -0.99904822) differs from the average normal (-0.043619387 -6.1476752e-11 -0.99904822) by 1.0643121e-15
Either correct the patch or split it into planar parts
--> FOAM Warning : 
    From function void Foam::wedgePolyPatch::calcGeometry(Foam::PstreamBuffers &)
    in file meshes/polyMesh/polyPatches/constraint/wedge/wedgePolyPatch.C at line 70
    Wedge patch 'wedge0' is not planar.
At local face at (0.02708423 0.097250042 -0.001182523) the normal (-0.043619368 -2.9439992e-08 -0.99904822) differs from the average normal (-0.043619387 -6.1476752e-11 -0.99904822) by 1.2263409e-15
Either correct the patch or split it into planar parts
--> FOAM Warning : 
    From function void Foam::wedgePolyPatch::calcGeometry(Foam::PstreamBuffers &)
    in file meshes/polyMesh/polyPatches/constraint/wedge/wedgePolyPatch.C at line 70
    Wedge patch 'wedge0' is not planar.
At local face at (0.027754604 0.096563348 -0.0012117922) the normal (-0.043619415 1.9904089e-08 -0.99904822) differs from the average normal (-0.043619387 -6.1476752e-11 -0.99904822) by 1.1680987e-15
Either correct the patch or split it into planar parts
--> FOAM Warning : 
    From function void Foam::wedgePolyPatch::calcGeometry(Foam::PstreamBuffers &)
    in file meshes/polyMesh/polyPatches/constraint/wedge/wedgePolyPatch.C at line 70
    Wedge patch 'wedge0' is not planar.
At local face at (0.034005582 0.094516449 -0.0014847158) the normal (-0.043619371 -4.2007663e-08 -0.99904822) differs from the average normal (-0.043619387 -6.1476752e-11 -0.99904822) by 2.0054949e-15
Either correct the patch or split it into planar parts
--> FOAM Warning : 
    From function void Foam::wedgePolyPatch::calcGeometry(Foam::PstreamBuffers &)
    in file meshes/polyMesh/polyPatches/constraint/wedge/wedgePolyPatch.C at line 70
    Wedge patch 'wedge0' is not planar.
At local face at (0.035159358 0.094605336 -0.0015350907) the normal (-0.043619346 -4.0196937e-08 -0.99904822) differs from the average normal (-0.043619387 -6.1476752e-11 -0.99904822) by 3.3281352e-15
Either correct the patch or split it into planar parts
--> FOAM Warning : 
    From function void Foam::wedgePolyPatch::calcGeometry(Foam::PstreamBuffers &)
    in file meshes/polyMesh/polyPatches/constraint/wedge/wedgePolyPatch.C at line 70
    Wedge patch 'wedge0' is not planar.
At local face at (0.024153577 0.11452845 -0.001054568) the normal (-0.043619359 -1.9080449e-08 -0.99904822) differs from the average normal (-0.043619387 -6.1476752e-11 -0.99904822) by 1.1277741e-15
Either correct the patch or split it into planar parts
--> FOAM Warning : 
    From function void Foam::wedgePolyPatch::calcGeometry(Foam::PstreamBuffers &)
    in file meshes/polyMesh/polyPatches/constraint/wedge/wedgePolyPatch.C at line 70
    Wedge patch 'wedge0' is not planar.
At local face at (0.037938285 0.10677463 -0.0016564213) the normal (-0.043619345 -2.8655287e-09 -0.99904822) differs from the average normal (-0.043619387 -6.1476752e-11 -0.99904822) by 1.7374841e-15
Either correct the patch or split it into planar parts
--> FOAM Warning : 
    From function void Foam::wedgePolyPatch::calcGeometry(Foam::PstreamBuffers &)
    in file meshes/polyMesh/polyPatches/constraint/wedge/wedgePolyPatch.C at line 70
    Wedge patch 'wedge0' is not planar.
At local face at (0.031313258 0.085526152 -0.0013671663) the normal (-0.043619416 -1.4622298e-08 -0.99904822) differs from the average normal (-0.043619387 -6.1476752e-11 -0.99904822) by 1.0412521e-15
Either correct the patch or split it into planar parts
--> FOAM Warning : 
    From function void Foam::wedgePolyPatch::calcGeometry(Foam::PstreamBuffers &)
    in file meshes/polyMesh/polyPatches/constraint/wedge/wedgePolyPatch.C at line 70
    Wedge patch 'wedge0' is not planar.
At local face at (0.033358078 0.093596068 -0.0014564452) the normal (-0.043619356 -2.0677899e-08 -0.99904822) differs from the average normal (-0.043619387 -6.1476752e-11 -0.99904822) by 1.3840849e-15
Either correct the patch or split it into planar parts
--> FOAM Warning : 
    From function void Foam::wedgePolyPatch::calcGeometry(Foam::PstreamBuffers &)
    in file meshes/polyMesh/polyPatches/constraint/wedge/wedgePolyPatch.C at line 70
    Wedge patch 'wedge0' is not planar.
At local face at (0.043694299 0.099546194 -0.0019077343) the normal (-0.043619384 -3.7260096e-08 -0.99904822) differs from the average normal (-0.043619387 -6.1476752e-11 -0.99904822) by 1.3900935e-15
Either correct the patch or split it into planar parts
--> FOAM Warning : 
    From function void Foam::wedgePolyPatch::calcGeometry(Foam::PstreamBuffers &)
    in file meshes/polyMesh/polyPatches/constraint/wedge/wedgePolyPatch.C at line 70
    Wedge patch 'wedge0' is not planar.
At local face at (0.034631291 0.079847049 -0.0015120348) the normal (-0.043619403 2.9560171e-08 -0.99904822) differs from the average normal (-0.043619387 -6.1476752e-11 -0.99904822) by 1.144747e-15
Either correct the patch or split it into planar parts
--> FOAM Warning : 
    From function void Foam::wedgePolyPatch::calcGeometry(Foam::PstreamBuffers &)
    in file meshes/polyMesh/polyPatches/constraint/wedge/wedgePolyPatch.C at line 70
    Wedge patch 'wedge0' is not planar.
At local face at (0.030085374 0.10378888 -0.0013135558) the normal (-0.043619401 6.5304521e-08 -0.99904822) differs from the average normal (-0.043619387 -6.1476752e-11 -0.99904822) by 4.4657387e-15
Either correct the patch or split it into planar parts
--> FOAM Warning : 
    From function void Foam::wedgePolyPatch::calcGeometry(Foam::PstreamBuffers &)
    in file meshes/polyMesh/polyPatches/constraint/wedge/wedgePolyPatch.C at line 70
    Wedge patch 'wedge0' is not planar.
At local face at (0.02633919 0.083068783 -0.0011499939) the normal (-0.043619431 1.779749e-08 -0.99904822) differs from the average normal (-0.043619387 -6.1476752e-11 -0.99904822) by 2.3005686e-15
Either correct the patch or split it into planar parts
--> FOAM Warning : 
    From function void Foam::wedgePolyPatch::calcGeometry(Foam::PstreamBuffers &)
    in file meshes/polyMesh/polyPatches/constraint/wedge/wedgePolyPatch.C at line 70
    Wedge patch 'wedge0' is not planar.
At local face at (0.044425939 0.078257986 -0.0019396784) the normal (-0.043619336 0 -0.99904822) differs from the average normal (-0.043619387 -6.1476752e-11 -0.99904822) by 2.6434096e-15
Either correct the patch or split it into planar parts
--> FOAM Warning : 
    From function void Foam::wedgePolyPatch::calcGeometry(Foam::PstreamBuffers &)
    in file meshes/polyMesh/polyPatches/constraint/wedge/wedgePolyPatch.C at line 70
    Wedge patch 'wedge0' is not planar.
At local face at (0.044425939 0.11174201 -0.0019396784) the normal (-0.043619336 0 -0.99904822) differs from the average normal (-0.043619387 -6.1476752e-11 -0.99904822) by 2.6434096e-15
Either correct the patch or split it into planar parts
--> FOAM Warning : 
    From function void Foam::wedgePolyPatch::calcGeometry(Foam::PstreamBuffers &)
    in file meshes/polyMesh/polyPatches/constraint/wedge/wedgePolyPatch.C at line 70
    Wedge patch 'wedge0' is not planar.
At local face at (0.027259269 0.083464589 -0.0011901654) the normal (-0.043619427 2.0290628e-08 -0.99904822) differs from the average normal (-0.043619387 -6.1476752e-11 -0.99904822) by 2.0370225e-15
Either correct the patch or split it into planar parts
--> FOAM Warning : 
    From function void Foam::wedgePolyPatch::calcGeometry(Foam::PstreamBuffers &)
    in file meshes/polyMesh/polyPatches/constraint/wedge/wedgePolyPatch.C at line 70
    Wedge patch 'wedge0' is not planar.
At local face at (0.030862903 0.077328942 -0.0013475034) the normal (-0.043619354 1.0683673e-08 -0.99904822) differs from the average normal (-0.043619387 -6.1476752e-11 -0.99904822) by 1.2163366e-15
Either correct the patch or split it into planar parts
--> FOAM Warning : 
    From function void Foam::wedgePolyPatch::calcGeometry(Foam::PstreamBuffers &)
    in file meshes/polyMesh/polyPatches/constraint/wedge/wedgePolyPatch.C at line 70
    Wedge patch 'wedge0' is not planar.
At local face at (0.026057276 0.10818887 -0.0011376852) the normal (-0.04361942 2.266772e-08 -0.99904822) differs from the average normal (-0.043619387 -6.1476752e-11 -0.99904822) by 1.6402577e-15
Either correct the patch or split it into planar parts
--> FOAM Warning : 
    From function void Foam::wedgePolyPatch::calcGeometry(Foam::PstreamBuffers &)
    in file meshes/polyMesh/polyPatches/constraint/wedge/wedgePolyPatch.C at line 70
    Wedge patch 'wedge0' is not planar.
At local face at (0.027886893 0.088807297 -0.0012175681) the normal (-0.043619406 3.4570365e-08 -0.99904822) differs from the average normal (-0.043619387 -6.1476752e-11 -0.99904822) by 1.5502517e-15
Either correct the patch or split it into planar parts
--> FOAM Warning : 
    From function void Foam::wedgePolyPatch::calcGeometry(Foam::PstreamBuffers &)
    in file meshes/polyMesh/polyPatches/constraint/wedge/wedgePolyPatch.C at line 70
    Wedge patch 'wedge0' is not planar.
At local face at (0.03338515 0.10445111 -0.0014576271) the normal (-0.043619344 -8.5130134e-11 -0.99904822) differs from the average normal (-0.043619387 -6.1476752e-11 -0.99904822) by 1.8260884e-15
Either correct the patch or split it into planar parts
--> FOAM Warning : 
    From function void Foam::wedgePolyPatch::calcGeometry(Foam::PstreamBuffers &)
    in file meshes/polyMesh/polyPatches/constraint/wedge/wedgePolyPatch.C at line 70
    Wedge patch 'wedge0' is not planar.
At local face at (0.03586464 0.079383554 -0.001565884) the normal (-0.043619357 1.6491752e-08 -0.99904822) differs from the average normal (-0.043619387 -6.1476752e-11 -0.99904822) by 1.1611703e-15
Either correct the patch or split it into planar parts
--> FOAM Warning : 
    From function void Foam::wedgePolyPatch::calcGeometry(Foam::PstreamBuffers &)
    in file meshes/polyMesh/polyPatches/constraint/wedge/wedgePolyPatch.C at line 70
    Wedge patch 'wedge0' is not planar.
At local face at (0.02963537 0.096886306 -0.0012939082) the normal (-0.043619345 1.1390549e-08 -0.99904822) differs from the average normal (-0.043619387 -6.1476752e-11 -0.99904822) by 1.859853e-15
Either correct the patch or split it into planar parts
--> FOAM Warning : 
    From function void Foam::wedgePolyPatch::calcGeometry(Foam::PstreamBuffers &)
    in file meshes/polyMesh/polyPatches/constraint/wedge/wedgePolyPatch.C at line 70
    Wedge patch 'wedge0' is not planar.
At local face at (0.030654987 0.097430861 -0.0013384256) the normal (-0.043619414 -2.643129e-08 -0.99904822) differs from the average normal (-0.043619387 -6.1476752e-11 -0.99904822) by 1.4273718e-15
Either correct the patch or split it into planar parts
--> FOAM Warning : 
    From function void Foam::wedgePolyPatch::calcGeometry(Foam::PstreamBuffers &)
    in file meshes/polyMesh/polyPatches/constraint/wedge/wedgePolyPatch.C at line 70
    Wedge patch 'wedge0' is not planar.
At local face at (0.031208915 0.078268183 -0.0013626107) the normal (-0.043619387 -3.8986536e-08 -0.99904822) differs from the average normal (-0.043619387 -6.1476752e-11 -0.99904822) by 1.5151603e-15
Either correct the patch or split it into planar parts
--> FOAM Warning : 
    From function void Foam::wedgePolyPatch::calcGeometry(Foam::PstreamBuffers &)
    in file meshes/polyMesh/polyPatches/constraint/wedge/wedgePolyPatch.C at line 70
    Wedge patch 'wedge0' is not planar.
At local face at (0.029642544 0.086170212 -0.0012942214) the normal (-0.043619361 -2.4086782e-08 -0.99904822) differs from the average normal (-0.043619387 -6.1476752e-11 -0.99904822) by 1.2631762e-15
Either correct the patch or split it into planar parts
--> FOAM Warning : 
    From function void Foam::wedgePolyPatch::calcGeometry(Foam::PstreamBuffers &)
    in file meshes/polyMesh/polyPatches/constraint/wedge/wedgePolyPatch.C at line 70
    Wedge patch 'wedge0' is not planar.
At local face at (0.040348329 0.09114426 -0.0017616461) the normal (-0.043619354 -4.1314348e-09 -0.99904822) differs from the average normal (-0.043619387 -6.1476752e-11 -0.99904822) by 1.0994772e-15
Either correct the patch or split it into planar parts
--> FOAM Warning : 
    From function void Foam::wedgePolyPatch::calcGeometry(Foam::PstreamBuffers &)
    in file meshes/polyMesh/polyPatches/constraint/wedge/wedgePolyPatch.C at line 70
    Wedge patch 'wedge0' is not planar.
At local face at (0.03420723 0.086408289 -0.0014935199) the normal (-0.043619391 -4.0806048e-08 -0.99904822) differs from the average normal (-0.043619387 -6.1476752e-11 -0.99904822) by 1.6805556e-15
Either correct the patch or split it into planar parts
--> FOAM Warning : 
    From function void Foam::wedgePolyPatch::calcGeometry(Foam::PstreamBuffers &)
    in file meshes/polyMesh/polyPatches/constraint/wedge/wedgePolyPatch.C at line 70
    Wedge patch 'wedge0' is not planar.
At local face at (0.026070661 0.11001525 -0.0011382696) the normal (-0.043619415 -2.1211984e-08 -0.99904822) differs from the average normal (-0.043619387 -6.1476752e-11 -0.99904822) by 1.2414744e-15
Either correct the patch or split it into planar parts
--> FOAM Warning : 
    From function void Foam::wedgePolyPatch::calcGeometry(Foam::PstreamBuffers &)
    in file meshes/polyMesh/polyPatches/constraint/wedge/wedgePolyPatch.C at line 70
    Wedge patch 'wedge0' is not planar.
At local face at (0.031890866 0.08734885 -0.0013923853) the normal (-0.04361941 -2.4392314e-08 -0.99904822) differs from the average normal (-0.043619387 -6.1476752e-11 -0.99904822) by 1.1311582e-15
Either correct the patch or split it into planar parts
--> FOAM Warning : 
    From function void Foam::wedgePolyPatch::calcGeometry(Foam::PstreamBuffers &)
    in file meshes/polyMesh/polyPatches/constraint/wedge/wedgePolyPatch.C at line 70
    Wedge patch 'wedge0' is not planar.
At local face at (0.034705861 0.098037614 -0.0015152906) the normal (-0.043619404 4.9501539e-08 -0.99904822) differs from the average normal (-0.043619387 -6.1476752e-11 -0.99904822) by 2.7425766e-15
Either correct the patch or split it into planar parts
--> FOAM Warning : 
    From function void Foam::wedgePolyPatch::calcGeometry(Foam::PstreamBuffers &)
    in file meshes/polyMesh/polyPatches/constraint/wedge/wedgePolyPatch.C at line 70
    Wedge patch 'wedge0' is not planar.
At local face at (0.03108595 0.088056018 -0.0013572419) the normal (-0.04361942 -1.5727827e-08 -0.99904822) differs from the average normal (-0.043619387 -6.1476752e-11 -0.99904822) by 1.3642295e-15
Either correct the patch or split it into planar parts
--> FOAM Warning : 
    From function void Foam::wedgePolyPatch::calcGeometry(Foam::PstreamBuffers &)
    in file meshes/polyMesh/polyPatches/constraint/wedge/wedgePolyPatch.C at line 70
    Wedge patch 'wedge0' is not planar.
At local face at (0.029173196 0.0840511 -0.0012737292) the normal (-0.043619329 3.1043006e-09 -0.99904822) differs from the average normal (-0.043619387 -6.1476752e-11 -0.99904822) by 3.3465537e-15
Either correct the patch or split it into planar parts
--> FOAM Warning : 
    From function void Foam::wedgePolyPatch::calcGeometry(Foam::PstreamBuffers &)
    in file meshes/polyMesh/polyPatches/constraint/wedge/wedgePolyPatch.C at line 70
    Wedge patch 'wedge0' is not planar.
At local face at (0.027478512 0.10438709 -0.0011997377) the normal (-0.04361943 2.5194238e-08 -0.99904822) differs from the average normal (-0.043619387 -6.1476752e-11 -0.99904822) by 2.4585428e-15
Either correct the patch or split it into planar parts
--> FOAM Warning : 
    From function void Foam::wedgePolyPatch::calcGeometry(Foam::PstreamBuffers &)
    in file meshes/polyMesh/polyPatches/constraint/wedge/wedgePolyPatch.C at line 70
    Wedge patch 'wedge0' is not planar.
At local face at (0.023352513 0.078799983 -0.0010195928) the normal (-0.043619361 -2.8644481e-08 -0.99904822) differs from the average normal (-0.043619387 -6.1476752e-11 -0.99904822) by 1.4968805e-15
Either correct the patch or split it into planar parts
--> FOAM Warning : 
    From function void Foam::wedgePolyPatch::calcGeometry(Foam::PstreamBuffers &)
    in file meshes/polyMesh/polyPatches/constraint/wedge/wedgePolyPatch.C at line 70
    Wedge patch 'wedge0' is not planar.
At local face at (0.028389816 0.10441812 -0.0012395261) the normal (-0.043619338 3.0616009e-08 -0.99904822) differs from the average normal (-0.043619387 -6.1476752e-11 -0.99904822) by 3.3044871e-15
Either correct the patch or split it into planar parts
--> FOAM Warning : 
    From function void Foam::wedgePolyPatch::calcGeometry(Foam::PstreamBuffers &)
    in file meshes/polyMesh/polyPatches/constraint/wedge/wedgePolyPatch.C at line 70
    Wedge patch 'wedge0' is not planar.
At local face at (0.042486995 0.10846026 -0.0018550223) the normal (-0.043619356 -2.2556382e-08 -0.99904822) differs from the average normal (-0.043619387 -6.1476752e-11 -0.99904822) by 1.4566581e-15
Either correct the patch or split it into planar parts
--> FOAM Warning : 
    From function void Foam::wedgePolyPatch::calcGeometry(Foam::PstreamBuffers &)
    in file meshes/polyMesh/polyPatches/constraint/wedge/wedgePolyPatch.C at line 70
    Wedge patch 'wedge0' is not planar.
At local face at (0.042492234 0.081545487 -0.001855251) the normal (-0.043619347 2.9682585e-08 -0.99904822) differs from the average normal (-0.043619387 -6.1476752e-11 -0.99904822) by 2.4999591e-15
Either correct the patch or split it into planar parts
--> FOAM Warning : 
    From function void Foam::wedgePolyPatch::calcGeometry(Foam::PstreamBuffers &)
    in file meshes/polyMesh/polyPatches/constraint/wedge/wedgePolyPatch.C at line 70
    Wedge patch 'wedge0' is not planar.
At local face at (0.043680638 0.093341909 -0.0019071378) the normal (-0.043619395 -4.2858753e-08 -0.99904822) differs from the average normal (-0.043619387 -6.1476752e-11 -0.99904822) by 1.8910938e-15
Either correct the patch or split it into planar parts
--> FOAM Warning : 
    From function void Foam::wedgePolyPatch::calcGeometry(Foam::PstreamBuffers &)
    in file meshes/polyMesh/polyPatches/constraint/wedge/wedgePolyPatch.C at line 70
    Wedge patch 'wedge0' is not planar.
At local face at (0.035660793 0.085025092 -0.0015569839) the normal (-0.043619421 1.5143817e-09 -0.99904822) differs from the average normal (-0.043619387 -6.1476752e-11 -0.99904822) by 1.1476952e-15
Either correct the patch or split it into planar parts
--> FOAM Warning : 
    From function void Foam::wedgePolyPatch::calcGeometry(Foam::PstreamBuffers &)
    in file meshes/polyMesh/polyPatches/constraint/wedge/wedgePolyPatch.C at line 70
    Wedge patch 'wedge0' is not planar.
At local face at (0.043673216 0.081174204 -0.0019068138) the normal (-0.043619364 3.6266523e-08 -0.99904822) differs from the average normal (-0.043619387 -6.1476752e-11 -0.99904822) by 1.8388224e-15
Either correct the patch or split it into planar parts
--> FOAM Warning : 
    From function void Foam::wedgePolyPatch::calcGeometry(Foam::PstreamBuffers &)
    in file meshes/polyMesh/polyPatches/constraint/wedge/wedgePolyPatch.C at line 70
    Wedge patch 'wedge0' is not planar.
At local face at (0.043667977 0.10883154 -0.001906585) the normal (-0.043619361 -2.439796e-08 -0.99904822) differs from the average normal (-0.043619387 -6.1476752e-11 -0.99904822) by 1.2626699e-15
Either correct the patch or split it into planar parts
--> FOAM Warning : 
    From function void Foam::wedgePolyPatch::calcGeometry(Foam::PstreamBuffers &)
    in file meshes/polyMesh/polyPatches/constraint/wedge/wedgePolyPatch.C at line 70
    Wedge patch 'wedge0' is not planar.
At local face at (0.042635679 0.091499169 -0.0018615139) the normal (-0.043619428 2.7041268e-08 -0.99904822) differs from the average normal (-0.043619387 -6.1476752e-11 -0.99904822) by 2.4365485e-15
Either correct the patch or split it into planar parts
--> FOAM Warning : 
    From function void Foam::wedgePolyPatch::calcGeometry(Foam::PstreamBuffers &)
    in file meshes/polyMesh/polyPatches/constraint/wedge/wedgePolyPatch.C at line 70
    Wedge patch 'wedge0' is not planar.
At local face at (0.031218796 0.076219257 -0.0013630421) the normal (-0.043619363 2.5827263e-08 -0.99904822) differs from the average normal (-0.043619387 -6.1476752e-11 -0.99904822) by 1.260847e-15
Either correct the patch or split it into planar parts
--> FOAM Warning : 
    From function void Foam::wedgePolyPatch::calcGeometry(Foam::PstreamBuffers &)
    in file meshes/polyMesh/polyPatches/constraint/wedge/wedgePolyPatch.C at line 70
    Wedge patch 'wedge0' is not planar.
At local face at (0.04014505 0.087469451 -0.0017527708) the normal (-0.043619372 -3.1541136e-08 -0.99904822) differs from the average normal (-0.043619387 -6.1476752e-11 -0.99904822) by 1.2078092e-15
Either correct the patch or split it into planar parts
--> FOAM Warning : 
    From function void Foam::wedgePolyPatch::calcGeometry(Foam::PstreamBuffers &)
    in file meshes/polyMesh/polyPatches/constraint/wedge/wedgePolyPatch.C at line 70
    Wedge patch 'wedge0' is not planar.
At local face at (0.024852558 0.098279296 -0.0010850861) the normal (-0.043619425 4.1768916e-08 -0.99904822) differs from the average normal (-0.043619387 -6.1476752e-11 -0.99904822) by 3.2293439e-15
Either correct the patch or split it into planar parts
--> FOAM Warning : 
    From function void Foam::wedgePolyPatch::calcGeometry(Foam::PstreamBuffers &)
    in file meshes/polyMesh/polyPatches/constraint/wedge/wedgePolyPatch.C at line 70
    Wedge patch 'wedge0' is not planar.
At local face at (0.042041594 0.087062482 -0.0018355756) the normal (-0.043619381 -3.5860263e-08 -0.99904822) differs from the average normal (-0.043619387 -6.1476752e-11 -0.99904822) by 1.3207525e-15
Either correct the patch or split it into planar parts
--> FOAM Warning : 
    From function void Foam::wedgePolyPatch::calcGeometry(Foam::PstreamBuffers &)
    in file meshes/polyMesh/polyPatches/constraint/wedge/wedgePolyPatch.C at line 70
    Wedge patch 'wedge0' is not planar.
At local face at (0.038050976 0.096827138 -0.0016613415) the normal (-0.043619362 -2.703162e-08 -0.99904822) differs from the average normal (-0.043619387 -6.1476752e-11 -0.99904822) by 1.3317692e-15
Either correct the patch or split it into planar parts
--> FOAM Warning : 
    From function void Foam::wedgePolyPatch::calcGeometry(Foam::PstreamBuffers &)
    in file meshes/polyMesh/polyPatches/constraint/wedge/wedgePolyPatch.C at line 70
    Wedge patch 'wedge0' is not planar.
At local face at (0.035703289 0.095749657 -0.0015588393) the normal (-0.043619347 -4.5285805e-08 -0.99904822) differs from the average normal (-0.043619387 -6.1476752e-11 -0.99904822) by 3.6544727e-15
Either correct the patch or split it into planar parts
--> FOAM Warning : 
    From function void Foam::wedgePolyPatch::calcGeometry(Foam::PstreamBuffers &)
    in file meshes/polyMesh/polyPatches/constraint/wedge/wedgePolyPatch.C at line 70
    Wedge patch 'wedge0' is not planar.
At local face at (0.028806229 0.097191426 -0.0012577071) the normal (-0.043619387 3.2984881e-08 -0.99904822) differs from the average normal (-0.043619387 -6.1476752e-11 -0.99904822) by 1.0921759e-15
Either correct the patch or split it into planar parts
--> FOAM Warning : 
    From function void Foam::wedgePolyPatch::calcGeometry(Foam::PstreamBuffers &)
    in file meshes/polyMesh/polyPatches/constraint/wedge/wedgePolyPatch.C at line 70
    Wedge patch 'wedge0' is not planar.
At local face at (0.029044035 0.082909246 -0.0012680899) the normal (-0.043619332 -5.730393e-09 -0.99904822) differs from the average normal (-0.043619387 -6.1476752e-11 -0.99904822) by 3.08278e-15
Either correct the patch or split it into planar parts
--> FOAM Warning : 
    From function void Foam::wedgePolyPatch::calcGeometry(Foam::PstreamBuffers &)
    in file meshes/polyMesh/polyPatches/constraint/wedge/wedgePolyPatch.C at line 70
    Wedge patch 'wedge0' is not planar.
At local face at (0.032737574 0.088132789 -0.0014293534) the normal (-0.04361936 3.3189261e-08 -0.99904822) differs from the average normal (-0.043619387 -6.1476752e-11 -0.99904822) by 1.8410188e-15
Either correct the patch or split it into planar parts
--> FOAM Warning : 
    From function void Foam::wedgePolyPatch::calcGeometry(Foam::PstreamBuffers &)
    in file meshes/polyMesh/polyPatches/constraint/wedge/wedgePolyPatch.C at line 70
    Wedge patch 'wedge0' is not planar.
At local face at (0.038225115 0.091356756 -0.0016689446) the normal (-0.043619414 -3.2577899e-08 -0.99904822) differs from the average normal (-0.043619387 -6.1476752e-11 -0.99904822) by 1.7920499e-15
Either correct the patch or split it into planar parts
--> FOAM Warning : 
    From function void Foam::wedgePolyPatch::calcGeometry(Foam::PstreamBuffers &)
    in file meshes/polyMesh/polyPatches/constraint/wedge/wedgePolyPatch.C at line 70
    Wedge patch 'wedge0' is not planar.
At local face at (0.038783329 0.090443511 -0.0016933167) the normal (-0.043619427 -1.1117868e-08 -0.99904822) differs from the average normal (-0.043619387 -6.1476752e-11 -0.99904822) by 1.7011041e-15
Either correct the patch or split it into planar parts
--> FOAM Warning : 
    From function void Foam::wedgePolyPatch::calcGeometry(Foam::PstreamBuffers &)
    in file meshes/polyMesh/polyPatches/constraint/wedge/wedgePolyPatch.C at line 70
    Wedge patch 'wedge0' is not planar.
At local face at (0.025332136 0.096129479 -0.0011060249) the normal (-0.043619365 -3.5179052e-08 -0.99904822) differs from the average normal (-0.043619387 -6.1476752e-11 -0.99904822) by 1.7337565e-15
Either correct the patch or split it into planar parts
--> FOAM Warning : 
    From function void Foam::wedgePolyPatch::calcGeometry(Foam::PstreamBuffers &)
    in file meshes/polyMesh/polyPatches/constraint/wedge/wedgePolyPatch.C at line 70
    Wedge patch 'wedge0' is not planar.
At local face at (0.04169808 0.11010191 -0.0018205775) the normal (-0.043619445 -5.2650193e-08 -0.99904822) differs from the average normal (-0.043619387 -6.1476752e-11 -0.99904822) by 6.1096563e-15
Either correct the patch or split it into planar parts
--> FOAM Warning : 
    From function void Foam::wedgePolyPatch::calcGeometry(Foam::PstreamBuffers &)
    in file meshes/polyMesh/polyPatches/constraint/wedge/wedgePolyPatch.C at line 70
    Wedge patch 'wedge0' is not planar.
At local face at (0.04169808 0.079898093 -0.0018205775) the normal (-0.043619445 5.2650335e-08 -0.99904822) differs from the average normal (-0.043619387 -6.1476752e-11 -0.99904822) by 6.1226406e-15
Either correct the patch or split it into planar parts
--> FOAM Warning : 
    From function void Foam::wedgePolyPatch::calcGeometry(Foam::PstreamBuffers &)
    in file meshes/polyMesh/polyPatches/constraint/wedge/wedgePolyPatch.C at line 70
    Wedge patch 'wedge0' is not planar.
At local face at (0.041766552 0.081024687 -0.0018235671) the normal (-0.043619454 -5.2159494e-08 -0.99904822) differs from the average normal (-0.043619387 -6.1476752e-11 -0.99904822) by 7.2410762e-15
Either correct the patch or split it into planar parts
--> FOAM Warning : 
    From function void Foam::wedgePolyPatch::calcGeometry(Foam::PstreamBuffers &)
    in file meshes/polyMesh/polyPatches/constraint/wedge/wedgePolyPatch.C at line 70
    Wedge patch 'wedge0' is not planar.
At local face at (0.041766552 0.10897531 -0.0018235671) the normal (-0.043619454 5.215943e-08 -0.99904822) differs from the average normal (-0.043619387 -6.1476752e-11 -0.99904822) by 7.2539226e-15
Either correct the patch or split it into planar parts
--> FOAM Warning : 
    From function void Foam::wedgePolyPatch::calcGeometry(Foam::PstreamBuffers &)
    in file meshes/polyMesh/polyPatches/constraint/wedge/wedgePolyPatch.C at line 70
    Wedge patch 'wedge0' is not planar.
At local face at (0.033574672 0.088156875 -0.0014659018) the normal (-0.043619366 3.376144e-08 -0.99904822) differs from the average normal (-0.043619387 -6.1476752e-11 -0.99904822) by 1.5789106e-15
Either correct the patch or split it into planar parts
--> FOAM Warning : 
    From function void Foam::wedgePolyPatch::calcGeometry(Foam::PstreamBuffers &)
    in file meshes/polyMesh/polyPatches/constraint/wedge/wedgePolyPatch.C at line 70
    Wedge patch 'wedge0' is not planar.
At local face at (0.035146351 0.084162138 -0.0015345228) the normal (-0.04361942 3.408113e-09 -0.99904822) differs from the average normal (-0.043619387 -6.1476752e-11 -0.99904822) by 1.0769065e-15
Either correct the patch or split it into planar parts
--> FOAM Warning : 
    From function void Foam::wedgePolyPatch::calcGeometry(Foam::PstreamBuffers &)
    in file meshes/polyMesh/polyPatches/constraint/wedge/wedgePolyPatch.C at line 70
    Wedge patch 'wedge0' is not planar.
At local face at (0.03511329 0.10580493 -0.0015330793) the normal (-0.043619459 1.2217175e-08 -0.99904822) differs from the average normal (-0.043619387 -6.1476752e-11 -0.99904822) by 5.3483457e-15
Either correct the patch or split it into planar parts
--> FOAM Warning : 
    From function void Foam::wedgePolyPatch::calcGeometry(Foam::PstreamBuffers &)
    in file meshes/polyMesh/polyPatches/constraint/wedge/wedgePolyPatch.C at line 70
    Wedge patch 'wedge0' is not planar.
At local face at (0.034150602 0.089871683 -0.0014910475) the normal (-0.043619428 8.0036498e-09 -0.99904822) differs from the average normal (-0.043619387 -6.1476752e-11 -0.99904822) by 1.7938702e-15
Either correct the patch or split it into planar parts
--> FOAM Warning : 
    From function void Foam::wedgePolyPatch::calcGeometry(Foam::PstreamBuffers &)
    in file meshes/polyMesh/polyPatches/constraint/wedge/wedgePolyPatch.C at line 70
    Wedge patch 'wedge0' is not planar.
At local face at (0.040890993 0.094356667 -0.0017853393) the normal (-0.043619353 -9.4644266e-09 -0.99904822) differs from the average normal (-0.043619387 -6.1476752e-11 -0.99904822) by 1.2247636e-15
Either correct the patch or split it into planar parts
--> FOAM Warning : 
    From function void Foam::wedgePolyPatch::calcGeometry(Foam::PstreamBuffers &)
    in file meshes/polyMesh/polyPatches/constraint/wedge/wedgePolyPatch.C at line 70
    Wedge patch 'wedge0' is not planar.
At local face at (0.026975708 0.10331338 -0.0011777848) the normal (-0.043619439 1.371912e-08 -0.99904822) differs from the average normal (-0.043619387 -6.1476752e-11 -0.99904822) by 2.8694057e-15
Either correct the patch or split it into planar parts
--> FOAM Warning : 
    From function void Foam::wedgePolyPatch::calcGeometry(Foam::PstreamBuffers &)
    in file meshes/polyMesh/polyPatches/constraint/wedge/wedgePolyPatch.C at line 70
    Wedge patch 'wedge0' is not planar.
At local face at (0.027889809 0.11128874 -0.0012176954) the normal (-0.043619311 -1.5532781e-08 -0.99904822) differs from the average normal (-0.043619387 -6.1476752e-11 -0.99904822) by 5.9928595e-15
Either correct the patch or split it into planar parts
--> FOAM Warning : 
    From function void Foam::wedgePolyPatch::calcGeometry(Foam::PstreamBuffers &)
    in file meshes/polyMesh/polyPatches/constraint/wedge/wedgePolyPatch.C at line 70
    Wedge patch 'wedge0' is not planar.
At local face at (0.040281646 0.092346976 -0.0017587346) the normal (-0.043619355 -6.710132e-10 -0.99904822) differs from the average normal (-0.043619387 -6.1476752e-11 -0.99904822) by 1.0081453e-15
Either correct the patch or split it into planar parts
--> FOAM Warning : 
    From function void Foam::wedgePolyPatch::calcGeometry(Foam::PstreamBuffers &)
    in file meshes/polyMesh/polyPatches/constraint/wedge/wedgePolyPatch.C at line 70
    Wedge patch 'wedge0' is not planar.
At local face at (0.025575029 0.076275296 -0.0011166299) the normal (-0.043619439 1.67613e-09 -0.99904822) differs from the average normal (-0.043619387 -6.1476752e-11 -0.99904822) by 2.6690828e-15
Either correct the patch or split it into planar parts
--> FOAM Warning : 
    From function void Foam::wedgePolyPatch::calcGeometry(Foam::PstreamBuffers &)
    in file meshes/polyMesh/polyPatches/constraint/wedge/wedgePolyPatch.C at line 70
    Wedge patch 'wedge0' is not planar.
At local face at (0.026096515 0.10665133 -0.0011393985) the normal (-0.043619421 -1.9119525e-08 -0.99904822) differs from the average normal (-0.043619387 -6.1476752e-11 -0.99904822) by 1.5161136e-15
Either correct the patch or split it into planar parts
--> FOAM Warning : 
    From function void Foam::wedgePolyPatch::calcGeometry(Foam::PstreamBuffers &)
    in file meshes/polyMesh/polyPatches/constraint/wedge/wedgePolyPatch.C at line 70
    Wedge patch 'wedge0' is not planar.
At local face at (0.027422343 0.090402263 -0.0011972854) the normal (-0.04361941 -4.1214769e-08 -0.99904822) differs from the average normal (-0.043619387 -6.1476752e-11 -0.99904822) by 2.2216179e-15
Either correct the patch or split it into planar parts
--> FOAM Warning : 
    From function void Foam::wedgePolyPatch::calcGeometry(Foam::PstreamBuffers &)
    in file meshes/polyMesh/polyPatches/constraint/wedge/wedgePolyPatch.C at line 70
    Wedge patch 'wedge0' is not planar.
At local face at (0.030000586 0.11274183 -0.0013098539) the normal (-0.043619435 -5.1338805e-09 -0.99904822) differs from the average normal (-0.043619387 -6.1476752e-11 -0.99904822) by 2.3121498e-15
Either correct the patch or split it into planar parts
--> FOAM Warning : 
    From function void Foam::wedgePolyPatch::calcGeometry(Foam::PstreamBuffers &)
    in file meshes/polyMesh/polyPatches/constraint/wedge/wedgePolyPatch.C at line 70
    Wedge patch 'wedge0' is not planar.
At local face at (0.029986516 0.077209157 -0.0013092396) the normal (-0.043619426 -1.2235459e-09 -0.99904822) differs from the average normal (-0.043619387 -6.1476752e-11 -0.99904822) by 1.5005154e-15
Either correct the patch or split it into planar parts
--> FOAM Warning : 
    From function void Foam::wedgePolyPatch::calcGeometry(Foam::PstreamBuffers &)
    in file meshes/polyMesh/polyPatches/constraint/wedge/wedgePolyPatch.C at line 70
    Wedge patch 'wedge0' is not planar.
At local face at (0.023974977 0.079770586 -0.0010467701) the normal (-0.043619355 -2.4934006e-08 -0.99904822) differs from the average normal (-0.043619387 -6.1476752e-11 -0.99904822) by 1.6642133e-15
Either correct the patch or split it into planar parts
--> FOAM Warning : 
    From function void Foam::wedgePolyPatch::calcGeometry(Foam::PstreamBuffers &)
    in file meshes/polyMesh/polyPatches/constraint/wedge/wedgePolyPatch.C at line 70
    Wedge patch 'wedge0' is not planar.
At local face at (0.038525949 0.097746674 -0.0016820793) the normal (-0.043619348 -2.93776e-09 -0.99904822) differs from the average normal (-0.043619387 -6.1476752e-11 -0.99904822) by 1.5473004e-15
Either correct the patch or split it into planar parts
--> FOAM Warning : 
    From function void Foam::wedgePolyPatch::calcGeometry(Foam::PstreamBuffers &)
    in file meshes/polyMesh/polyPatches/constraint/wedge/wedgePolyPatch.C at line 70
    Wedge patch 'wedge0' is not planar.
At local face at (0.025174196 0.094126561 -0.0010991291) the normal (-0.04361936 2.2367594e-08 -0.99904822) differs from the average normal (-0.043619387 -6.1476752e-11 -0.99904822) by 1.2130694e-15
Either correct the patch or split it into planar parts
--> FOAM Warning : 
    From function void Foam::wedgePolyPatch::calcGeometry(Foam::PstreamBuffers &)
    in file meshes/polyMesh/polyPatches/constraint/wedge/wedgePolyPatch.C at line 70
    Wedge patch 'wedge0' is not planar.
At local face at (0.026060143 0.093516776 -0.0011378104) the normal (-0.043619405 5.5814866e-08 -0.99904822) differs from the average normal (-0.043619387 -6.1476752e-11 -0.99904822) by 3.4548627e-15
[...]
Either correct the patch or split it into planar parts
--> FOAM Warning : 
    From function void Foam::wedgePolyPatch::calcGeometry(Foam::PstreamBuffers &)
    in file meshes/polyMesh/polyPatches/constraint/wedge/wedgePolyPatch.C at line 70
    Wedge patch 'wedge1' is not planar.
At local face at (0.054300781 0.135165 0.0023708233) the normal (-0.043619419 2.6007634e-08 0.99904822) differs from the average normal (-0.043619386 6.1266683e-12 0.99904822) by 1.7554405e-15
Either correct the patch or split it into planar parts
--> FOAM Warning : 
    From function void Foam::wedgePolyPatch::calcGeometry(Foam::PstreamBuffers &)
    in file meshes/polyMesh/polyPatches/constraint/wedge/wedgePolyPatch.C at line 70
    Wedge patch 'wedge1' is not planar.
At local face at (0.042889335 -0.1061277 0.0018725888) the normal (-0.043619402 -6.3041989e-08 0.99904822) differs from the average normal (-0.043619386 6.1266683e-12 0.99904822) by 4.2258847e-15
Either correct the patch or split it into planar parts
--> FOAM Warning : 
    From function void Foam::wedgePolyPatch::calcGeometry(Foam::PstreamBuffers &)
    in file meshes/polyMesh/polyPatches/constraint/wedge/wedgePolyPatch.C at line 70
    Wedge patch 'wedge1' is not planar.
At local face at (0.035193009 -0.10630776 0.0015365599) the normal (-0.043619342 2.83648e-09 0.99904822) differs from the average normal (-0.043619386 6.1266683e-12 0.99904822) by 1.929454e-15
Either correct the patch or split it into planar parts
--> FOAM Warning : 
    From function void Foam::wedgePolyPatch::calcGeometry(Foam::PstreamBuffers &)
    in file meshes/polyMesh/polyPatches/constraint/wedge/wedgePolyPatch.C at line 70
    Wedge patch 'wedge1' is not planar.
At local face at (0.037181927 -0.10624432 0.001623398) the normal (-0.043619427 -1.3480387e-09 0.99904822) differs from the average normal (-0.043619386 6.1266683e-12 0.99904822) by 1.7030394e-15
Either correct the patch or split it into planar parts
--> FOAM Warning : 
    From function void Foam::wedgePolyPatch::calcGeometry(Foam::PstreamBuffers &)
    in file meshes/polyMesh/polyPatches/constraint/wedge/wedgePolyPatch.C at line 70
    Wedge patch 'wedge1' is not planar.
At local face at (0.051639137 0.13748008 0.0022546134) the normal (-0.043619368 -2.9262602e-08 0.99904822) differs from the average normal (-0.043619386 6.1266683e-12 0.99904822) by 1.1701065e-15
Either correct the patch or split it into planar parts
--> FOAM Warning : 
    From function void Foam::wedgePolyPatch::calcGeometry(Foam::PstreamBuffers &)
    in file meshes/polyMesh/polyPatches/constraint/wedge/wedgePolyPatch.C at line 70
    Wedge patch 'wedge1' is not planar.
At local face at (0.05283018 0.1447119 0.0023066155) the normal (-0.043619355 1.1879282e-08 0.99904822) differs from the average normal (-0.043619386 6.1266683e-12 0.99904822) by 1.1073476e-15
Either correct the patch or split it into planar parts
--> FOAM Warning : 
    From function void Foam::wedgePolyPatch::calcGeometry(Foam::PstreamBuffers &)
    in file meshes/polyMesh/polyPatches/constraint/wedge/wedgePolyPatch.C at line 70
    Wedge patch 'wedge1' is not planar.
At local face at (0.02754439 0.14652679 0.0012026141) the normal (-0.043619421 2.68543e-08 0.99904822) differs from the average normal (-0.043619386 6.1266683e-12 0.99904822) by 1.9546732e-15
Either correct the patch or split it into planar parts
--> FOAM Warning : 
    From function void Foam::wedgePolyPatch::calcGeometry(Foam::PstreamBuffers &)
    in file meshes/polyMesh/polyPatches/constraint/wedge/wedgePolyPatch.C at line 70
    Wedge patch 'wedge1' is not planar.
At local face at (0.040070521 -0.10552713 0.0017495167) the normal (-0.043619388 -3.1587661e-08 0.99904822) differs from the average normal (-0.043619386 6.1266683e-12 0.99904822) by 1.0029174e-15
Either correct the patch or split it into planar parts
--> FOAM Warning : 
    From function void Foam::wedgePolyPatch::calcGeometry(Foam::PstreamBuffers &)
    in file meshes/polyMesh/polyPatches/constraint/wedge/wedgePolyPatch.C at line 70
    Wedge patch 'wedge1' is not planar.
At local face at (0.056848192 0.13376159 0.0024820457) the normal (-0.043619352 -1.0024501e-08 0.99904822) differs from the average normal (-0.043619386 6.1266683e-12 0.99904822) by 1.2323161e-15
Either correct the patch or split it into planar parts
--> FOAM Warning : 
    From function void Foam::wedgePolyPatch::calcGeometry(Foam::PstreamBuffers &)
    in file meshes/polyMesh/polyPatches/constraint/wedge/wedgePolyPatch.C at line 70
    Wedge patch 'wedge1' is not planar.
At local face at (0.026235492 0.14570244 0.0011454663) the normal (-0.04361941 3.3411671e-08 0.99904822) differs from the average normal (-0.043619386 6.1266683e-12 0.99904822) by 1.6817015e-15
Either correct the patch or split it into planar parts
--> FOAM Warning : 
    From function void Foam::wedgePolyPatch::calcGeometry(Foam::PstreamBuffers &)
    in file meshes/polyMesh/polyPatches/constraint/wedge/wedgePolyPatch.C at line 70
    Wedge patch 'wedge1' is not planar.
At local face at (0.033380977 -0.11116589 0.0014574449) the normal (-0.043619361 -2.7172797e-08 0.99904822) differs from the average normal (-0.043619386 6.1266683e-12 0.99904822) by 1.3412604e-15
Either correct the patch or split it into planar parts
--> FOAM Warning : 
    From function void Foam::wedgePolyPatch::calcGeometry(Foam::PstreamBuffers &)
    in file meshes/polyMesh/polyPatches/constraint/wedge/wedgePolyPatch.C at line 70
    Wedge patch 'wedge1' is not planar.
At local face at (0.041975538 -0.1054485 0.0018326916) the normal (-0.04361941 -5.5805825e-08 0.99904822) differs from the average normal (-0.043619386 6.1266683e-12 0.99904822) by 3.7139407e-15
Either correct the patch or split it into planar parts
--> FOAM Warning : 
    From function void Foam::wedgePolyPatch::calcGeometry(Foam::PstreamBuffers &)
    in file meshes/polyMesh/polyPatches/constraint/wedge/wedgePolyPatch.C at line 70
    Wedge patch 'wedge1' is not planar.
At local face at (0.05807261 0.07622244 0.0025355049) the normal (-0.043619393 3.2085641e-08 0.99904822) differs from the average normal (-0.043619386 6.1266683e-12 0.99904822) by 1.0775106e-15
Either correct the patch or split it into planar parts
--> FOAM Warning : 
    From function void Foam::wedgePolyPatch::calcGeometry(Foam::PstreamBuffers &)
    in file meshes/polyMesh/polyPatches/constraint/wedge/wedgePolyPatch.C at line 70
    Wedge patch 'wedge1' is not planar.
At local face at (0.043651049 0.1455361 0.001905846) the normal (-0.043619352 9.0968902e-09 0.99904822) differs from the average normal (-0.043619386 6.1266683e-12 0.99904822) by 1.2131977e-15
Either correct the patch or split it into planar parts
--> FOAM Warning : 
    From function void Foam::wedgePolyPatch::calcGeometry(Foam::PstreamBuffers &)
    in file meshes/polyMesh/polyPatches/constraint/wedge/wedgePolyPatch.C at line 70
    Wedge patch 'wedge1' is not planar.
At local face at (0.05314934 0.14312922 0.0023205503) the normal (-0.043619354 5.4107738e-09 0.99904822) differs from the average normal (-0.043619386 6.1266683e-12 0.99904822) by 1.0649505e-15
Either correct the patch or split it into planar parts
--> FOAM Warning : 
    From function void Foam::wedgePolyPatch::calcGeometry(Foam::PstreamBuffers &)
    in file meshes/polyMesh/polyPatches/constraint/wedge/wedgePolyPatch.C at line 70
    Wedge patch 'wedge1' is not planar.
At local face at (0.040998209 -0.10597563 0.0017900204) the normal (-0.04361938 -3.683691e-08 0.99904822) differs from the average normal (-0.043619386 6.1266683e-12 0.99904822) by 1.3971768e-15
Either correct the patch or split it into planar parts
--> FOAM Warning : 
    From function void Foam::wedgePolyPatch::calcGeometry(Foam::PstreamBuffers &)
    in file meshes/polyMesh/polyPatches/constraint/wedge/wedgePolyPatch.C at line 70
    Wedge patch 'wedge1' is not planar.
At local face at (0.054515609 0.08464972 0.0023802029) the normal (-0.043619378 -3.8412777e-08 0.99904822) differs from the average normal (-0.043619386 6.1266683e-12 0.99904822) by 1.5394317e-15
Either correct the patch or split it into planar parts
--> FOAM Warning : 
    From function void Foam::wedgePolyPatch::calcGeometry(Foam::PstreamBuffers &)
    in file meshes/polyMesh/polyPatches/constraint/wedge/wedgePolyPatch.C at line 70
    Wedge patch 'wedge1' is not planar.
At local face at (0.05450911 0.067862527 0.0023799191) the normal (-0.043619384 3.3039208e-08 0.99904822) differs from the average normal (-0.043619386 6.1266683e-12 0.99904822) by 1.0939767e-15
Either correct the patch or split it into planar parts
--> FOAM Warning : 
    From function void Foam::wedgePolyPatch::calcGeometry(Foam::PstreamBuffers &)
    in file meshes/polyMesh/polyPatches/constraint/wedge/wedgePolyPatch.C at line 70
    Wedge patch 'wedge1' is not planar.
At local face at (0.032039967 -0.11196213 0.0013988952) the normal (-0.043619397 -4.9740008e-08 0.99904822) differs from the average normal (-0.043619386 6.1266683e-12 0.99904822) by 2.5922104e-15
Either correct the patch or split it into planar parts
--> FOAM Warning : 
    From function void Foam::wedgePolyPatch::calcGeometry(Foam::PstreamBuffers &)
    in file meshes/polyMesh/polyPatches/constraint/wedge/wedgePolyPatch.C at line 70
    Wedge patch 'wedge1' is not planar.
At local face at (0.052857667 0.13293368 0.0023078156) the normal (-0.043619408 -2.4183339e-08 0.99904822) differs from the average normal (-0.043619386 6.1266683e-12 0.99904822) by 1.0586918e-15
Either correct the patch or split it into planar parts
--> FOAM Warning : 
    From function void Foam::wedgePolyPatch::calcGeometry(Foam::PstreamBuffers &)
    in file meshes/polyMesh/polyPatches/constraint/wedge/wedgePolyPatch.C at line 70
    Wedge patch 'wedge1' is not planar.
At local face at (0.052902549 0.13456292 0.0023097752) the normal (-0.043619408 3.1488643e-08 0.99904822) differs from the average normal (-0.043619386 6.1266683e-12 0.99904822) by 1.466366e-15
Either correct the patch or split it into planar parts
--> FOAM Warning : 
    From function void Foam::wedgePolyPatch::calcGeometry(Foam::PstreamBuffers &)
    in file meshes/polyMesh/polyPatches/constraint/wedge/wedgePolyPatch.C at line 70
    Wedge patch 'wedge1' is not planar.
At local face at (0.056170911 -0.075142203 0.002452475) the normal (-0.043619409 -2.6596752e-08 0.99904822) differs from the average normal (-0.043619386 6.1266683e-12 0.99904822) by 1.2608061e-15
Either correct the patch or split it into planar parts
--> FOAM Warning : 
    From function void Foam::wedgePolyPatch::calcGeometry(Foam::PstreamBuffers &)
    in file meshes/polyMesh/polyPatches/constraint/wedge/wedgePolyPatch.C at line 70
    Wedge patch 'wedge1' is not planar.
At local face at (0.056177061 0.084872891 0.0024527435) the normal (-0.043619398 -4.2126877e-08 0.99904822) differs from the average normal (-0.043619386 6.1266683e-12 0.99904822) by 1.9225494e-15
Either correct the patch or split it into planar parts
--> FOAM Warning : 
    From function void Foam::wedgePolyPatch::calcGeometry(Foam::PstreamBuffers &)
    in file meshes/polyMesh/polyPatches/constraint/wedge/wedgePolyPatch.C at line 70
    Wedge patch 'wedge1' is not planar.
At local face at (0.056144568 0.067688345 0.0024513248) the normal (-0.0436194 3.5808442e-08 0.99904822) differs from the average normal (-0.043619386 6.1266683e-12 0.99904822) by 1.4863085e-15
Either correct the patch or split it into planar parts
--> FOAM Warning : 
    From function void Foam::wedgePolyPatch::calcGeometry(Foam::PstreamBuffers &)
    in file meshes/polyMesh/polyPatches/constraint/wedge/wedgePolyPatch.C at line 70
    Wedge patch 'wedge1' is not planar.
At local face at (0.031003622 -0.11064329 0.0013536474) the normal (-0.043619418 -1.7135768e-08 0.99904822) differs from the average normal (-0.043619386 6.1266683e-12 0.99904822) by 1.3495239e-15
Either correct the patch or split it into planar parts
--> FOAM Warning : 
    From function void Foam::wedgePolyPatch::calcGeometry(Foam::PstreamBuffers &)
    in file meshes/polyMesh/polyPatches/constraint/wedge/wedgePolyPatch.C at line 70
    Wedge patch 'wedge1' is not planar.
At local face at (0.037738375 -0.10754984 0.001647693) the normal (-0.043619421 -2.118597e-08 0.99904822) differs from the average normal (-0.043619386 6.1266683e-12 0.99904822) by 1.6799901e-15
Either correct the patch or split it into planar parts
--> FOAM Warning : 
    From function void Foam::wedgePolyPatch::calcGeometry(Foam::PstreamBuffers &)
    in file meshes/polyMesh/polyPatches/constraint/wedge/wedgePolyPatch.C at line 70
    Wedge patch 'wedge1' is not planar.
At local face at (0.056469888 -0.090739922 0.0024655286) the normal (-0.043619419 -1.414314e-08 0.99904822) differs from the average normal (-0.043619386 6.1266683e-12 0.99904822) by 1.2834381e-15
Either correct the patch or split it into planar parts
--> FOAM Warning : 
    From function void Foam::wedgePolyPatch::calcGeometry(Foam::PstreamBuffers &)
    in file meshes/polyMesh/polyPatches/constraint/wedge/wedgePolyPatch.C at line 70
    Wedge patch 'wedge1' is not planar.
At local face at (0.031075197 -0.10789044 0.0013567724) the normal (-0.043619418 1.5726757e-08 0.99904822) differs from the average normal (-0.043619386 6.1266683e-12 0.99904822) by 1.3015732e-15
Either correct the patch or split it into planar parts
--> FOAM Warning : 
    From function void Foam::wedgePolyPatch::calcGeometry(Foam::PstreamBuffers &)
    in file meshes/polyMesh/polyPatches/constraint/wedge/wedgePolyPatch.C at line 70
    Wedge patch 'wedge1' is not planar.
At local face at (0.05646975 -0.076760241 0.0024655225) the normal (-0.043619418 1.8216347e-08 0.99904822) differs from the average normal (-0.043619386 6.1266683e-12 0.99904822) by 1.3474888e-15
Either correct the patch or split it into planar parts
--> FOAM Warning : 
    From function void Foam::wedgePolyPatch::calcGeometry(Foam::PstreamBuffers &)
    in file meshes/polyMesh/polyPatches/constraint/wedge/wedgePolyPatch.C at line 70
    Wedge patch 'wedge1' is not planar.
At local face at (0.044963291 -0.10740256 0.0019631397) the normal (-0.04361942 -3.8932521e-09 0.99904822) differs from the average normal (-0.043619386 6.1266683e-12 0.99904822) by 1.1617109e-15
Either correct the patch or split it into planar parts
--> FOAM Warning : 
    From function void Foam::wedgePolyPatch::calcGeometry(Foam::PstreamBuffers &)
    in file meshes/polyMesh/polyPatches/constraint/wedge/wedgePolyPatch.C at line 70
    Wedge patch 'wedge1' is not planar.
At local face at (0.057749557 0.13553954 0.0025214001) the normal (-0.043619353 -1.1113323e-08 0.99904822) differs from the average normal (-0.043619386 6.1266683e-12 0.99904822) by 1.1983661e-15
Either correct the patch or split it into planar parts
Allowing dictionary preprocessing ('#include', '#codeStream').
Read dictionary changeDictionaryDict with replacements for dictionaries 
12
(
Tini
Tref
pressure
Text
href
kcte
pini
Spfood
Spfluid
boundary
T
p
)

Reading polyMesh/boundary file to extract patch names
Loaded dictionary boundary with entries 
7
(
wedge0
steelwalls
up
wedge1
ref
steel_to_fluid
steel_to_food
)

Extracted patch groups:
    group wall with patches 
2
(
steel_to_fluid
steel_to_food
)

    group wedge with patches 
2
(
wedge0
wedge1
)

Replacing entries in dictionary Tini
Loading dictionary Tini
--> FOAM Warning : 
    From function int main(int, char **)
    in file changeDictionary.C at line 686
    Requested field to change Tini does not exist in "/lustre/home/dc010/miriam/02hptMultiRegions/case/0/steel"
Replacing entries in dictionary Tref
Loading dictionary Tref
--> FOAM Warning : 
    From function int main(int, char **)
    in file changeDictionary.C at line 686
    Requested field to change Tref does not exist in "/lustre/home/dc010/miriam/02hptMultiRegions/case/0/steel"
Replacing entries in dictionary pressure
Loading dictionary pressure
--> FOAM Warning : 
    From function int main(int, char **)
    in file changeDictionary.C at line 686
    Requested field to change pressure does not exist in "/lustre/home/dc010/miriam/02hptMultiRegions/case/0/steel"
Replacing entries in dictionary Text
Loading dictionary Text
--> FOAM Warning : 
    From function int main(int, char **)
    in file changeDictionary.C at line 686
    Requested field to change Text does not exist in "/lustre/home/dc010/miriam/02hptMultiRegions/case/0/steel"
Replacing entries in dictionary href
Loading dictionary href
--> FOAM Warning : 
    From function int main(int, char **)
    in file changeDictionary.C at line 686
    Requested field to change href does not exist in "/lustre/home/dc010/miriam/02hptMultiRegions/case/0/steel"
Replacing entries in dictionary kcte
Loading dictionary kcte
--> FOAM Warning : 
    From function int main(int, char **)
    in file changeDictionary.C at line 686
    Requested field to change kcte does not exist in "/lustre/home/dc010/miriam/02hptMultiRegions/case/0/steel"
Replacing entries in dictionary pini
Loading dictionary pini
--> FOAM Warning : 
    From function int main(int, char **)
    in file changeDictionary.C at line 686
    Requested field to change pini does not exist in "/lustre/home/dc010/miriam/02hptMultiRegions/case/0/steel"
Replacing entries in dictionary Spfood
Loading dictionary Spfood
--> FOAM Warning : 
    From function int main(int, char **)
    in file changeDictionary.C at line 686
    Requested field to change Spfood does not exist in "/lustre/home/dc010/miriam/02hptMultiRegions/case/0/steel"
Replacing entries in dictionary Spfluid
Loading dictionary Spfluid
--> FOAM Warning : 
    From function int main(int, char **)
    in file changeDictionary.C at line 686
    Requested field to change Spfluid does not exist in "/lustre/home/dc010/miriam/02hptMultiRegions/case/0/steel"
Replacing entries in dictionary boundary
Special handling of boundary as polyMesh/boundary file.
Merging entries from 
3
(
wedge.*
up
ref
)

fieldDict:
{
    wedge0
    {
        type            wedge;
        physicalType    wedge;
        inGroups        1 ( wedge );
        nFaces          1723;
        startFace       2475;
    }
    steelwalls
    {
        type            patch;
        physicalType    patch;
        nFaces          19;
        startFace       4198;
    }
    up
    {
        type            patch;
        physicalType    patch;
        nFaces          2;
        startFace       4217;
    }
    wedge1
    {
        type            wedge;
        physicalType    wedge;
        inGroups        1 ( wedge );
        nFaces          1723;
        startFace       4219;
    }
    ref
    {
        type            patch;
        physicalType    patch;
        nFaces          25;
        startFace       5942;
    }
    steel_to_fluid
    {
        type            mappedWall;
        inGroups        1 ( wall );
        nFaces          123;
        startFace       5967;
        sampleMode      nearestPatchFace;
        sampleRegion    fluid;
        samplePatch     fluid_to_steel;
    }
    steel_to_food
    {
        type            mappedWall;
        inGroups        1 ( wall );
        nFaces          23;
        startFace       6090;
        sampleMode      nearestPatchFace;
        sampleRegion    food;
        samplePatch     food_to_steel;
    }
}

Writing modified boundary
Replacing entries in dictionary T
Loading dictionary T
Loaded dictionary T with entries 
3
(
dimensions
internalField
boundaryField
)

Merging entries from 
2
(
internalField
boundaryField
)

Writing modified fieldDict T
Replacing entries in dictionary p
Loading dictionary p
Loaded dictionary p with entries 
3
(
dimensions
internalField
boundaryField
)

Merging entries from 
2
(
internalField
boundaryField
)

Writing modified fieldDict p

End

